Restoring modules from user's torchfoamenv
/*---------------------------------------------------------------------------*\
  =========                 |
  \\      /  F ield         | OpenFOAM: The Open Source CFD Toolbox
   \\    /   O peration     | Website:  https://openfoam.org
    \\  /    A nd           | Version:  6
     \\/     M anipulation  |
\*---------------------------------------------------------------------------*/
Build  : 6
Exec   : blockMesh
Date   : Sep 05 2023
Time   : 13:29:06
Host   : "gra972"
PID    : 5007
I/O    : uncollated
Case   : /scratch/hmarefat/torchFOAM/nnCase
nProcs : 1
sigFpe : Enabling floating point exception trapping (FOAM_SIGFPE).
fileModificationChecking : Monitoring run-time modified files using timeStampMaster (fileModificationSkew 10)
allowSystemOperations : Allowing user-supplied system call operations

// * * * * * * * * * * * * * * * * * * * * * * * * * * * * * * * * * * * * * //
Create time

Deleting polyMesh directory
    "/scratch/hmarefat/torchFOAM/nnCase/constant/polyMesh"
Creating block mesh from
    "/scratch/hmarefat/torchFOAM/nnCase/system/blockMeshDict"
Creating block edges
No non-planar block faces defined
Creating topology blocks
Creating topology patches

Creating block mesh topology

Check topology

	Basic statistics
		Number of internal faces : 0
		Number of boundary faces : 6
		Number of defined boundary faces : 6
		Number of undefined boundary faces : 0
	Checking patch -> block consistency

Creating block offsets
Creating merge list .

Creating polyMesh from blockMesh
Creating patches
Creating cells
Creating points with scale 1
    Block 0 cell size :
        i : 0.125 .. 0.125
        j : 0.125 .. 0.125
        k : 0.125 .. 0.125


Writing polyMesh
----------------
Mesh Information
----------------
  boundingBox: (-6 -4 -4) (10 4 4)
  nPoints: 545025
  nCells: 524288
  nFaces: 1593344
  nInternalFaces: 1552384
----------------
Patches
----------------
  patch 0 (start: 1552384 size: 8192) name: ground
  patch 1 (start: 1560576 size: 8192) name: atmosphere
  patch 2 (start: 1568768 size: 8192) name: front
  patch 3 (start: 1576960 size: 8192) name: back
  patch 4 (start: 1585152 size: 4096) name: outlet
  patch 5 (start: 1589248 size: 4096) name: inlet

End

/*---------------------------------------------------------------------------*\
  =========                 |
  \\      /  F ield         | OpenFOAM: The Open Source CFD Toolbox
   \\    /   O peration     | Website:  https://openfoam.org
    \\  /    A nd           | Version:  6
     \\/     M anipulation  |
\*---------------------------------------------------------------------------*/
Build  : 6
Exec   : topoSet
Date   : Sep 05 2023
Time   : 13:29:13
Host   : "gra972"
PID    : 5025
I/O    : uncollated
Case   : /scratch/hmarefat/torchFOAM/nnCase
nProcs : 1
sigFpe : Enabling floating point exception trapping (FOAM_SIGFPE).
fileModificationChecking : Monitoring run-time modified files using timeStampMaster (fileModificationSkew 10)
allowSystemOperations : Allowing user-supplied system call operations

// * * * * * * * * * * * * * * * * * * * * * * * * * * * * * * * * * * * * * //
Create time

--> FOAM Warning : 
    From function void* Foam::dlOpen(const Foam::fileName&, bool)
    in file POSIX.C at line 1234
    dlopen error : /home/hmarefat/projects/def-alamj/hmarefat/PhD-OpenFOAM/applications/libs/libCanopyModel.so: undefined symbol: _ZN4Foam13porosityModel18transformModelDataEv
--> FOAM Warning : 
    From function bool Foam::dlLibraryTable::open(const Foam::fileName&, bool)
    in file db/dynamicLibrary/dlLibraryTable/dlLibraryTable.C at line 105
    could not load "/home/hmarefat/projects/def-alamj/hmarefat/PhD-OpenFOAM/applications/libs/libCanopyModel.so"
Create polyMesh for time = 0

Reading topoSetDict

Time = 0
    mesh not changed.
Created cellSet canopy
    Applying source sphereToCell
    Adding cells with centre within sphere, with centre = (0 0 0) and radius = 0.5
    cellSet canopy now size 280
Created cellZoneSet canopy
    Applying source setToCellZone
    Adding all cells from cellSet canopy ...
    cellZoneSet canopy now size 280
End

/*---------------------------------------------------------------------------*\
  =========                 |
  \\      /  F ield         | OpenFOAM: The Open Source CFD Toolbox
   \\    /   O peration     | Website:  https://openfoam.org
    \\  /    A nd           | Version:  6
     \\/     M anipulation  |
\*---------------------------------------------------------------------------*/
Build  : 6
Exec   : decomposePar
Date   : Sep 05 2023
Time   : 13:29:18
Host   : "gra972"
PID    : 5059
I/O    : uncollated
Case   : /scratch/hmarefat/torchFOAM/nnCase
nProcs : 1
sigFpe : Enabling floating point exception trapping (FOAM_SIGFPE).
fileModificationChecking : Monitoring run-time modified files using timeStampMaster (fileModificationSkew 10)
allowSystemOperations : Allowing user-supplied system call operations

// * * * * * * * * * * * * * * * * * * * * * * * * * * * * * * * * * * * * * //
Create time



Decomposing mesh region0

Create mesh

Calculating distribution of cells
Selecting decompositionMethod simple

Finished decomposition in 0.37 s

Calculating original mesh data

Distributing cells to processors

Distributing faces to processors

Distributing points to processors

Constructing processor meshes

Processor 0
    Number of cells = 16384
    Number of faces shared with processor 1 = 2048
    Number of faces shared with processor 16 = 512
    Number of processor patches = 2
    Number of processor faces = 2560
    Number of boundary faces = 3072

Processor 1
    Number of cells = 16384
    Number of faces shared with processor 0 = 2048
    Number of faces shared with processor 2 = 2048
    Number of faces shared with processor 17 = 512
    Number of processor patches = 3
    Number of processor faces = 4608
    Number of boundary faces = 1024

Processor 2
    Number of cells = 16384
    Number of faces shared with processor 1 = 2048
    Number of faces shared with processor 3 = 2048
    Number of faces shared with processor 18 = 512
    Number of processor patches = 3
    Number of processor faces = 4608
    Number of boundary faces = 1024

Processor 3
    Number of cells = 16384
    Number of faces shared with processor 2 = 2048
    Number of faces shared with processor 4 = 2048
    Number of faces shared with processor 19 = 512
    Number of processor patches = 3
    Number of processor faces = 4608
    Number of boundary faces = 1024

Processor 4
    Number of cells = 16384
    Number of faces shared with processor 3 = 2048
    Number of faces shared with processor 5 = 2048
    Number of faces shared with processor 20 = 512
    Number of processor patches = 3
    Number of processor faces = 4608
    Number of boundary faces = 1024

Processor 5
    Number of cells = 16384
    Number of faces shared with processor 4 = 2048
    Number of faces shared with processor 6 = 2048
    Number of faces shared with processor 21 = 512
    Number of processor patches = 3
    Number of processor faces = 4608
    Number of boundary faces = 1024

Processor 6
    Number of cells = 16384
    Number of faces shared with processor 5 = 2048
    Number of faces shared with processor 7 = 2048
    Number of faces shared with processor 22 = 512
    Number of processor patches = 3
    Number of processor faces = 4608
    Number of boundary faces = 1024

Processor 7
    Number of cells = 16384
    Number of faces shared with processor 6 = 2048
    Number of faces shared with processor 8 = 2048
    Number of faces shared with processor 23 = 512
    Number of processor patches = 3
    Number of processor faces = 4608
    Number of boundary faces = 1024

Processor 8
    Number of cells = 16384
    Number of faces shared with processor 7 = 2048
    Number of faces shared with processor 9 = 2048
    Number of faces shared with processor 24 = 512
    Number of processor patches = 3
    Number of processor faces = 4608
    Number of boundary faces = 1024

Processor 9
    Number of cells = 16384
    Number of faces shared with processor 8 = 2048
    Number of faces shared with processor 10 = 2048
    Number of faces shared with processor 25 = 512
    Number of processor patches = 3
    Number of processor faces = 4608
    Number of boundary faces = 1024

Processor 10
    Number of cells = 16384
    Number of faces shared with processor 9 = 2048
    Number of faces shared with processor 11 = 2048
    Number of faces shared with processor 26 = 512
    Number of processor patches = 3
    Number of processor faces = 4608
    Number of boundary faces = 1024

Processor 11
    Number of cells = 16384
    Number of faces shared with processor 10 = 2048
    Number of faces shared with processor 12 = 2048
    Number of faces shared with processor 27 = 512
    Number of processor patches = 3
    Number of processor faces = 4608
    Number of boundary faces = 1024

Processor 12
    Number of cells = 16384
    Number of faces shared with processor 11 = 2048
    Number of faces shared with processor 13 = 2048
    Number of faces shared with processor 28 = 512
    Number of processor patches = 3
    Number of processor faces = 4608
    Number of boundary faces = 1024

Processor 13
    Number of cells = 16384
    Number of faces shared with processor 12 = 2048
    Number of faces shared with processor 14 = 2048
    Number of faces shared with processor 29 = 512
    Number of processor patches = 3
    Number of processor faces = 4608
    Number of boundary faces = 1024

Processor 14
    Number of cells = 16384
    Number of faces shared with processor 13 = 2048
    Number of faces shared with processor 15 = 2048
    Number of faces shared with processor 30 = 512
    Number of processor patches = 3
    Number of processor faces = 4608
    Number of boundary faces = 1024

Processor 15
    Number of cells = 16384
    Number of faces shared with processor 14 = 2048
    Number of faces shared with processor 31 = 512
    Number of processor patches = 2
    Number of processor faces = 2560
    Number of boundary faces = 3072

Processor 16
    Number of cells = 16384
    Number of faces shared with processor 0 = 512
    Number of faces shared with processor 17 = 2048
    Number of processor patches = 2
    Number of processor faces = 2560
    Number of boundary faces = 3072

Processor 17
    Number of cells = 16384
    Number of faces shared with processor 1 = 512
    Number of faces shared with processor 16 = 2048
    Number of faces shared with processor 18 = 2048
    Number of processor patches = 3
    Number of processor faces = 4608
    Number of boundary faces = 1024

Processor 18
    Number of cells = 16384
    Number of faces shared with processor 2 = 512
    Number of faces shared with processor 17 = 2048
    Number of faces shared with processor 19 = 2048
    Number of processor patches = 3
    Number of processor faces = 4608
    Number of boundary faces = 1024

Processor 19
    Number of cells = 16384
    Number of faces shared with processor 3 = 512
    Number of faces shared with processor 18 = 2048
    Number of faces shared with processor 20 = 2048
    Number of processor patches = 3
    Number of processor faces = 4608
    Number of boundary faces = 1024

Processor 20
    Number of cells = 16384
    Number of faces shared with processor 4 = 512
    Number of faces shared with processor 19 = 2048
    Number of faces shared with processor 21 = 2048
    Number of processor patches = 3
    Number of processor faces = 4608
    Number of boundary faces = 1024

Processor 21
    Number of cells = 16384
    Number of faces shared with processor 5 = 512
    Number of faces shared with processor 20 = 2048
    Number of faces shared with processor 22 = 2048
    Number of processor patches = 3
    Number of processor faces = 4608
    Number of boundary faces = 1024

Processor 22
    Number of cells = 16384
    Number of faces shared with processor 6 = 512
    Number of faces shared with processor 21 = 2048
    Number of faces shared with processor 23 = 2048
    Number of processor patches = 3
    Number of processor faces = 4608
    Number of boundary faces = 1024

Processor 23
    Number of cells = 16384
    Number of faces shared with processor 7 = 512
    Number of faces shared with processor 22 = 2048
    Number of faces shared with processor 24 = 2048
    Number of processor patches = 3
    Number of processor faces = 4608
    Number of boundary faces = 1024

Processor 24
    Number of cells = 16384
    Number of faces shared with processor 8 = 512
    Number of faces shared with processor 23 = 2048
    Number of faces shared with processor 25 = 2048
    Number of processor patches = 3
    Number of processor faces = 4608
    Number of boundary faces = 1024

Processor 25
    Number of cells = 16384
    Number of faces shared with processor 9 = 512
    Number of faces shared with processor 24 = 2048
    Number of faces shared with processor 26 = 2048
    Number of processor patches = 3
    Number of processor faces = 4608
    Number of boundary faces = 1024

Processor 26
    Number of cells = 16384
    Number of faces shared with processor 10 = 512
    Number of faces shared with processor 25 = 2048
    Number of faces shared with processor 27 = 2048
    Number of processor patches = 3
    Number of processor faces = 4608
    Number of boundary faces = 1024

Processor 27
    Number of cells = 16384
    Number of faces shared with processor 11 = 512
    Number of faces shared with processor 26 = 2048
    Number of faces shared with processor 28 = 2048
    Number of processor patches = 3
    Number of processor faces = 4608
    Number of boundary faces = 1024

Processor 28
    Number of cells = 16384
    Number of faces shared with processor 12 = 512
    Number of faces shared with processor 27 = 2048
    Number of faces shared with processor 29 = 2048
    Number of processor patches = 3
    Number of processor faces = 4608
    Number of boundary faces = 1024

Processor 29
    Number of cells = 16384
    Number of faces shared with processor 13 = 512
    Number of faces shared with processor 28 = 2048
    Number of faces shared with processor 30 = 2048
    Number of processor patches = 3
    Number of processor faces = 4608
    Number of boundary faces = 1024

Processor 30
    Number of cells = 16384
    Number of faces shared with processor 14 = 512
    Number of faces shared with processor 29 = 2048
    Number of faces shared with processor 31 = 2048
    Number of processor patches = 3
    Number of processor faces = 4608
    Number of boundary faces = 1024

Processor 31
    Number of cells = 16384
    Number of faces shared with processor 15 = 512
    Number of faces shared with processor 30 = 2048
    Number of processor patches = 2
    Number of processor faces = 2560
    Number of boundary faces = 3072

Number of processor faces = 69632
Max number of cells = 16384 (0% above average 16384)
Max number of processor patches = 3 (4.34783% above average 2.875)
Max number of faces between processors = 4608 (5.88235% above average 4352)

Time = 0

Processor 0: field transfer
Processor 1: field transfer
Processor 2: field transfer
Processor 3: field transfer
Processor 4: field transfer
Processor 5: field transfer
Processor 6: field transfer
Processor 7: field transfer
Processor 8: field transfer
Processor 9: field transfer
Processor 10: field transfer
Processor 11: field transfer
Processor 12: field transfer
Processor 13: field transfer
Processor 14: field transfer
Processor 15: field transfer
Processor 16: field transfer
Processor 17: field transfer
Processor 18: field transfer
Processor 19: field transfer
Processor 20: field transfer
Processor 21: field transfer
Processor 22: field transfer
Processor 23: field transfer
Processor 24: field transfer
Processor 25: field transfer
Processor 26: field transfer
Processor 27: field transfer
Processor 28: field transfer
Processor 29: field transfer
Processor 30: field transfer
Processor 31: field transfer

End

slurmstepd: error: Detected 6 oom_kill events in StepId=10763742.0. Some of the step tasks have been OOM Killed.
srun: error: gra972: task 25: Out Of Memory
srun: Terminating StepId=10763742.0
slurmstepd: error: *** STEP 10763742.0 ON gra972 CANCELLED AT 2023-09-05T13:30:57 ***
slurmstepd: error: Detected 6 oom_kill events in StepId=10763742.batch. Some of the step tasks have been OOM Killed.
