
Lmod is automatically replacing "intel/2020.1.217" with "gcc/9.3.0".


Due to MODULEPATH changes, the following have been reloaded:
  1) libfabric/1.10.1     2) openmpi/4.0.3     3) ucx/1.8.0

/*---------------------------------------------------------------------------*\
  =========                 |
  \\      /  F ield         | OpenFOAM: The Open Source CFD Toolbox
   \\    /   O peration     | Website:  https://openfoam.org
    \\  /    A nd           | Version:  6
     \\/     M anipulation  |
\*---------------------------------------------------------------------------*/
Build  : 6
Exec   : blockMesh
Date   : Apr 19 2023
Time   : 13:49:17
Host   : "gra411"
PID    : 25199
I/O    : uncollated
Case   : /scratch/hmarefat/torchFOAM/dynSmagCase
nProcs : 1
sigFpe : Enabling floating point exception trapping (FOAM_SIGFPE).
fileModificationChecking : Monitoring run-time modified files using timeStampMaster (fileModificationSkew 10)
allowSystemOperations : Allowing user-supplied system call operations

// * * * * * * * * * * * * * * * * * * * * * * * * * * * * * * * * * * * * * //
Create time

Deleting polyMesh directory
    "/scratch/hmarefat/torchFOAM/dynSmagCase/constant/polyMesh"
Creating block mesh from
    "/scratch/hmarefat/torchFOAM/dynSmagCase/system/blockMeshDict"
Creating block edges
No non-planar block faces defined
Creating topology blocks
Creating topology patches

Creating block mesh topology

Check topology

	Basic statistics
		Number of internal faces : 0
		Number of boundary faces : 6
		Number of defined boundary faces : 6
		Number of undefined boundary faces : 0
	Checking patch -> block consistency

Creating block offsets
Creating merge list .

Creating polyMesh from blockMesh
Creating patches
Creating cells
Creating points with scale 1
    Block 0 cell size :
        i : 0.125 .. 0.125
        j : 0.125 .. 0.125
        k : 0.125 .. 0.125


Writing polyMesh
----------------
Mesh Information
----------------
  boundingBox: (-6 -4 -4) (10 4 4)
  nPoints: 545025
  nCells: 524288
  nFaces: 1593344
  nInternalFaces: 1552384
----------------
Patches
----------------
  patch 0 (start: 1552384 size: 8192) name: ground
  patch 1 (start: 1560576 size: 8192) name: atmosphere
  patch 2 (start: 1568768 size: 8192) name: front
  patch 3 (start: 1576960 size: 8192) name: back
  patch 4 (start: 1585152 size: 4096) name: outlet
  patch 5 (start: 1589248 size: 4096) name: inlet

End

/*---------------------------------------------------------------------------*\
  =========                 |
  \\      /  F ield         | OpenFOAM: The Open Source CFD Toolbox
   \\    /   O peration     | Website:  https://openfoam.org
    \\  /    A nd           | Version:  6
     \\/     M anipulation  |
\*---------------------------------------------------------------------------*/
Build  : 6
Exec   : topoSet
Date   : Apr 19 2023
Time   : 13:49:22
Host   : "gra411"
PID    : 25209
I/O    : uncollated
Case   : /scratch/hmarefat/torchFOAM/dynSmagCase
nProcs : 1
sigFpe : Enabling floating point exception trapping (FOAM_SIGFPE).
fileModificationChecking : Monitoring run-time modified files using timeStampMaster (fileModificationSkew 10)
allowSystemOperations : Allowing user-supplied system call operations

// * * * * * * * * * * * * * * * * * * * * * * * * * * * * * * * * * * * * * //
Create time

--> FOAM Warning : 
    From function void* Foam::dlOpen(const Foam::fileName&, bool)
    in file POSIX.C at line 1234
    dlopen error : /home/hmarefat/projects/def-alamj/hmarefat/PhD-OpenFOAM/applications/libs/libCanopyModel.so: undefined symbol: _ZN4Foam13porosityModel18transformModelDataEv
--> FOAM Warning : 
    From function bool Foam::dlLibraryTable::open(const Foam::fileName&, bool)
    in file db/dynamicLibrary/dlLibraryTable/dlLibraryTable.C at line 105
    could not load "/home/hmarefat/projects/def-alamj/hmarefat/PhD-OpenFOAM/applications/libs/libCanopyModel.so"
Create polyMesh for time = 0

Reading topoSetDict

Time = 0
    mesh not changed.
Created cellSet canopy
    Applying source sphereToCell
    Adding cells with centre within sphere, with centre = (0 0 0) and radius = 0.5
    cellSet canopy now size 280
Created cellZoneSet canopy
    Applying source setToCellZone
    Adding all cells from cellSet canopy ...
    cellZoneSet canopy now size 280
End

/*---------------------------------------------------------------------------*\
  =========                 |
  \\      /  F ield         | OpenFOAM: The Open Source CFD Toolbox
   \\    /   O peration     | Website:  https://openfoam.org
    \\  /    A nd           | Version:  6
     \\/     M anipulation  |
\*---------------------------------------------------------------------------*/
Build  : 6
Exec   : decomposePar
Date   : Apr 19 2023
Time   : 13:49:25
Host   : "gra411"
PID    : 25212
I/O    : uncollated
Case   : /scratch/hmarefat/torchFOAM/dynSmagCase
nProcs : 1
sigFpe : Enabling floating point exception trapping (FOAM_SIGFPE).
fileModificationChecking : Monitoring run-time modified files using timeStampMaster (fileModificationSkew 10)
allowSystemOperations : Allowing user-supplied system call operations

// * * * * * * * * * * * * * * * * * * * * * * * * * * * * * * * * * * * * * //
Create time



Decomposing mesh region0

Create mesh

Calculating distribution of cells
Selecting decompositionMethod simple

Finished decomposition in 0.37 s

Calculating original mesh data

Distributing cells to processors

Distributing faces to processors

Distributing points to processors

Constructing processor meshes

Processor 0
    Number of cells = 2048
    Number of faces shared with processor 1 = 256
    Number of faces shared with processor 16 = 128
    Number of faces shared with processor 64 = 128
    Number of processor patches = 3
    Number of processor faces = 512
    Number of boundary faces = 512

Processor 1
    Number of cells = 2048
    Number of faces shared with processor 0 = 256
    Number of faces shared with processor 2 = 256
    Number of faces shared with processor 17 = 128
    Number of faces shared with processor 65 = 128
    Number of processor patches = 4
    Number of processor faces = 768
    Number of boundary faces = 256

Processor 2
    Number of cells = 2048
    Number of faces shared with processor 1 = 256
    Number of faces shared with processor 3 = 256
    Number of faces shared with processor 18 = 128
    Number of faces shared with processor 66 = 128
    Number of processor patches = 4
    Number of processor faces = 768
    Number of boundary faces = 256

Processor 3
    Number of cells = 2048
    Number of faces shared with processor 2 = 256
    Number of faces shared with processor 4 = 256
    Number of faces shared with processor 19 = 128
    Number of faces shared with processor 67 = 128
    Number of processor patches = 4
    Number of processor faces = 768
    Number of boundary faces = 256

Processor 4
    Number of cells = 2048
    Number of faces shared with processor 3 = 256
    Number of faces shared with processor 5 = 256
    Number of faces shared with processor 20 = 128
    Number of faces shared with processor 68 = 128
    Number of processor patches = 4
    Number of processor faces = 768
    Number of boundary faces = 256

Processor 5
    Number of cells = 2048
    Number of faces shared with processor 4 = 256
    Number of faces shared with processor 6 = 256
    Number of faces shared with processor 21 = 128
    Number of faces shared with processor 69 = 128
    Number of processor patches = 4
    Number of processor faces = 768
    Number of boundary faces = 256

Processor 6
    Number of cells = 2048
    Number of faces shared with processor 5 = 256
    Number of faces shared with processor 7 = 256
    Number of faces shared with processor 22 = 128
    Number of faces shared with processor 70 = 128
    Number of processor patches = 4
    Number of processor faces = 768
    Number of boundary faces = 256

Processor 7
    Number of cells = 2048
    Number of faces shared with processor 6 = 256
    Number of faces shared with processor 8 = 256
    Number of faces shared with processor 23 = 128
    Number of faces shared with processor 71 = 128
    Number of processor patches = 4
    Number of processor faces = 768
    Number of boundary faces = 256

Processor 8
    Number of cells = 2048
    Number of faces shared with processor 7 = 256
    Number of faces shared with processor 9 = 256
    Number of faces shared with processor 24 = 128
    Number of faces shared with processor 72 = 128
    Number of processor patches = 4
    Number of processor faces = 768
    Number of boundary faces = 256

Processor 9
    Number of cells = 2048
    Number of faces shared with processor 8 = 256
    Number of faces shared with processor 10 = 256
    Number of faces shared with processor 25 = 128
    Number of faces shared with processor 73 = 128
    Number of processor patches = 4
    Number of processor faces = 768
    Number of boundary faces = 256

Processor 10
    Number of cells = 2048
    Number of faces shared with processor 9 = 256
    Number of faces shared with processor 11 = 256
    Number of faces shared with processor 26 = 128
    Number of faces shared with processor 74 = 128
    Number of processor patches = 4
    Number of processor faces = 768
    Number of boundary faces = 256

Processor 11
    Number of cells = 2048
    Number of faces shared with processor 10 = 256
    Number of faces shared with processor 12 = 256
    Number of faces shared with processor 27 = 128
    Number of faces shared with processor 75 = 128
    Number of processor patches = 4
    Number of processor faces = 768
    Number of boundary faces = 256

Processor 12
    Number of cells = 2048
    Number of faces shared with processor 11 = 256
    Number of faces shared with processor 13 = 256
    Number of faces shared with processor 28 = 128
    Number of faces shared with processor 76 = 128
    Number of processor patches = 4
    Number of processor faces = 768
    Number of boundary faces = 256

Processor 13
    Number of cells = 2048
    Number of faces shared with processor 12 = 256
    Number of faces shared with processor 14 = 256
    Number of faces shared with processor 29 = 128
    Number of faces shared with processor 77 = 128
    Number of processor patches = 4
    Number of processor faces = 768
    Number of boundary faces = 256

Processor 14
    Number of cells = 2048
    Number of faces shared with processor 13 = 256
    Number of faces shared with processor 15 = 256
    Number of faces shared with processor 30 = 128
    Number of faces shared with processor 78 = 128
    Number of processor patches = 4
    Number of processor faces = 768
    Number of boundary faces = 256

Processor 15
    Number of cells = 2048
    Number of faces shared with processor 14 = 256
    Number of faces shared with processor 31 = 128
    Number of faces shared with processor 79 = 128
    Number of processor patches = 3
    Number of processor faces = 512
    Number of boundary faces = 512

Processor 16
    Number of cells = 2048
    Number of faces shared with processor 0 = 128
    Number of faces shared with processor 17 = 256
    Number of faces shared with processor 32 = 128
    Number of faces shared with processor 80 = 128
    Number of processor patches = 4
    Number of processor faces = 640
    Number of boundary faces = 384

Processor 17
    Number of cells = 2048
    Number of faces shared with processor 1 = 128
    Number of faces shared with processor 16 = 256
    Number of faces shared with processor 18 = 256
    Number of faces shared with processor 33 = 128
    Number of faces shared with processor 81 = 128
    Number of processor patches = 5
    Number of processor faces = 896
    Number of boundary faces = 128

Processor 18
    Number of cells = 2048
    Number of faces shared with processor 2 = 128
    Number of faces shared with processor 17 = 256
    Number of faces shared with processor 19 = 256
    Number of faces shared with processor 34 = 128
    Number of faces shared with processor 82 = 128
    Number of processor patches = 5
    Number of processor faces = 896
    Number of boundary faces = 128

Processor 19
    Number of cells = 2048
    Number of faces shared with processor 3 = 128
    Number of faces shared with processor 18 = 256
    Number of faces shared with processor 20 = 256
    Number of faces shared with processor 35 = 128
    Number of faces shared with processor 83 = 128
    Number of processor patches = 5
    Number of processor faces = 896
    Number of boundary faces = 128

Processor 20
    Number of cells = 2048
    Number of faces shared with processor 4 = 128
    Number of faces shared with processor 19 = 256
    Number of faces shared with processor 21 = 256
    Number of faces shared with processor 36 = 128
    Number of faces shared with processor 84 = 128
    Number of processor patches = 5
    Number of processor faces = 896
    Number of boundary faces = 128

Processor 21
    Number of cells = 2048
    Number of faces shared with processor 5 = 128
    Number of faces shared with processor 20 = 256
    Number of faces shared with processor 22 = 256
    Number of faces shared with processor 37 = 128
    Number of faces shared with processor 85 = 128
    Number of processor patches = 5
    Number of processor faces = 896
    Number of boundary faces = 128

Processor 22
    Number of cells = 2048
    Number of faces shared with processor 6 = 128
    Number of faces shared with processor 21 = 256
    Number of faces shared with processor 23 = 256
    Number of faces shared with processor 38 = 128
    Number of faces shared with processor 86 = 128
    Number of processor patches = 5
    Number of processor faces = 896
    Number of boundary faces = 128

Processor 23
    Number of cells = 2048
    Number of faces shared with processor 7 = 128
    Number of faces shared with processor 22 = 256
    Number of faces shared with processor 24 = 256
    Number of faces shared with processor 39 = 128
    Number of faces shared with processor 87 = 128
    Number of processor patches = 5
    Number of processor faces = 896
    Number of boundary faces = 128

Processor 24
    Number of cells = 2048
    Number of faces shared with processor 8 = 128
    Number of faces shared with processor 23 = 256
    Number of faces shared with processor 25 = 256
    Number of faces shared with processor 40 = 128
    Number of faces shared with processor 88 = 128
    Number of processor patches = 5
    Number of processor faces = 896
    Number of boundary faces = 128

Processor 25
    Number of cells = 2048
    Number of faces shared with processor 9 = 128
    Number of faces shared with processor 24 = 256
    Number of faces shared with processor 26 = 256
    Number of faces shared with processor 41 = 128
    Number of faces shared with processor 89 = 128
    Number of processor patches = 5
    Number of processor faces = 896
    Number of boundary faces = 128

Processor 26
    Number of cells = 2048
    Number of faces shared with processor 10 = 128
    Number of faces shared with processor 25 = 256
    Number of faces shared with processor 27 = 256
    Number of faces shared with processor 42 = 128
    Number of faces shared with processor 90 = 128
    Number of processor patches = 5
    Number of processor faces = 896
    Number of boundary faces = 128

Processor 27
    Number of cells = 2048
    Number of faces shared with processor 11 = 128
    Number of faces shared with processor 26 = 256
    Number of faces shared with processor 28 = 256
    Number of faces shared with processor 43 = 128
    Number of faces shared with processor 91 = 128
    Number of processor patches = 5
    Number of processor faces = 896
    Number of boundary faces = 128

Processor 28
    Number of cells = 2048
    Number of faces shared with processor 12 = 128
    Number of faces shared with processor 27 = 256
    Number of faces shared with processor 29 = 256
    Number of faces shared with processor 44 = 128
    Number of faces shared with processor 92 = 128
    Number of processor patches = 5
    Number of processor faces = 896
    Number of boundary faces = 128

Processor 29
    Number of cells = 2048
    Number of faces shared with processor 13 = 128
    Number of faces shared with processor 28 = 256
    Number of faces shared with processor 30 = 256
    Number of faces shared with processor 45 = 128
    Number of faces shared with processor 93 = 128
    Number of processor patches = 5
    Number of processor faces = 896
    Number of boundary faces = 128

Processor 30
    Number of cells = 2048
    Number of faces shared with processor 14 = 128
    Number of faces shared with processor 29 = 256
    Number of faces shared with processor 31 = 256
    Number of faces shared with processor 46 = 128
    Number of faces shared with processor 94 = 128
    Number of processor patches = 5
    Number of processor faces = 896
    Number of boundary faces = 128

Processor 31
    Number of cells = 2048
    Number of faces shared with processor 15 = 128
    Number of faces shared with processor 30 = 256
    Number of faces shared with processor 47 = 128
    Number of faces shared with processor 95 = 128
    Number of processor patches = 4
    Number of processor faces = 640
    Number of boundary faces = 384

Processor 32
    Number of cells = 2048
    Number of faces shared with processor 16 = 128
    Number of faces shared with processor 33 = 256
    Number of faces shared with processor 48 = 128
    Number of faces shared with processor 96 = 128
    Number of processor patches = 4
    Number of processor faces = 640
    Number of boundary faces = 384

Processor 33
    Number of cells = 2048
    Number of faces shared with processor 17 = 128
    Number of faces shared with processor 32 = 256
    Number of faces shared with processor 34 = 256
    Number of faces shared with processor 49 = 128
    Number of faces shared with processor 97 = 128
    Number of processor patches = 5
    Number of processor faces = 896
    Number of boundary faces = 128

Processor 34
    Number of cells = 2048
    Number of faces shared with processor 18 = 128
    Number of faces shared with processor 33 = 256
    Number of faces shared with processor 35 = 256
    Number of faces shared with processor 50 = 128
    Number of faces shared with processor 98 = 128
    Number of processor patches = 5
    Number of processor faces = 896
    Number of boundary faces = 128

Processor 35
    Number of cells = 2048
    Number of faces shared with processor 19 = 128
    Number of faces shared with processor 34 = 256
    Number of faces shared with processor 36 = 256
    Number of faces shared with processor 51 = 128
    Number of faces shared with processor 99 = 128
    Number of processor patches = 5
    Number of processor faces = 896
    Number of boundary faces = 128

Processor 36
    Number of cells = 2048
    Number of faces shared with processor 20 = 128
    Number of faces shared with processor 35 = 256
    Number of faces shared with processor 37 = 256
    Number of faces shared with processor 52 = 128
    Number of faces shared with processor 100 = 128
    Number of processor patches = 5
    Number of processor faces = 896
    Number of boundary faces = 128

Processor 37
    Number of cells = 2048
    Number of faces shared with processor 21 = 128
    Number of faces shared with processor 36 = 256
    Number of faces shared with processor 38 = 256
    Number of faces shared with processor 53 = 128
    Number of faces shared with processor 101 = 128
    Number of processor patches = 5
    Number of processor faces = 896
    Number of boundary faces = 128

Processor 38
    Number of cells = 2048
    Number of faces shared with processor 22 = 128
    Number of faces shared with processor 37 = 256
    Number of faces shared with processor 39 = 256
    Number of faces shared with processor 54 = 128
    Number of faces shared with processor 102 = 128
    Number of processor patches = 5
    Number of processor faces = 896
    Number of boundary faces = 128

Processor 39
    Number of cells = 2048
    Number of faces shared with processor 23 = 128
    Number of faces shared with processor 38 = 256
    Number of faces shared with processor 40 = 256
    Number of faces shared with processor 55 = 128
    Number of faces shared with processor 103 = 128
    Number of processor patches = 5
    Number of processor faces = 896
    Number of boundary faces = 128

Processor 40
    Number of cells = 2048
    Number of faces shared with processor 24 = 128
    Number of faces shared with processor 39 = 256
    Number of faces shared with processor 41 = 256
    Number of faces shared with processor 56 = 128
    Number of faces shared with processor 104 = 128
    Number of processor patches = 5
    Number of processor faces = 896
    Number of boundary faces = 128

Processor 41
    Number of cells = 2048
    Number of faces shared with processor 25 = 128
    Number of faces shared with processor 40 = 256
    Number of faces shared with processor 42 = 256
    Number of faces shared with processor 57 = 128
    Number of faces shared with processor 105 = 128
    Number of processor patches = 5
    Number of processor faces = 896
    Number of boundary faces = 128

Processor 42
    Number of cells = 2048
    Number of faces shared with processor 26 = 128
    Number of faces shared with processor 41 = 256
    Number of faces shared with processor 43 = 256
    Number of faces shared with processor 58 = 128
    Number of faces shared with processor 106 = 128
    Number of processor patches = 5
    Number of processor faces = 896
    Number of boundary faces = 128

Processor 43
    Number of cells = 2048
    Number of faces shared with processor 27 = 128
    Number of faces shared with processor 42 = 256
    Number of faces shared with processor 44 = 256
    Number of faces shared with processor 59 = 128
    Number of faces shared with processor 107 = 128
    Number of processor patches = 5
    Number of processor faces = 896
    Number of boundary faces = 128

Processor 44
    Number of cells = 2048
    Number of faces shared with processor 28 = 128
    Number of faces shared with processor 43 = 256
    Number of faces shared with processor 45 = 256
    Number of faces shared with processor 60 = 128
    Number of faces shared with processor 108 = 128
    Number of processor patches = 5
    Number of processor faces = 896
    Number of boundary faces = 128

Processor 45
    Number of cells = 2048
    Number of faces shared with processor 29 = 128
    Number of faces shared with processor 44 = 256
    Number of faces shared with processor 46 = 256
    Number of faces shared with processor 61 = 128
    Number of faces shared with processor 109 = 128
    Number of processor patches = 5
    Number of processor faces = 896
    Number of boundary faces = 128

Processor 46
    Number of cells = 2048
    Number of faces shared with processor 30 = 128
    Number of faces shared with processor 45 = 256
    Number of faces shared with processor 47 = 256
    Number of faces shared with processor 62 = 128
    Number of faces shared with processor 110 = 128
    Number of processor patches = 5
    Number of processor faces = 896
    Number of boundary faces = 128

Processor 47
    Number of cells = 2048
    Number of faces shared with processor 31 = 128
    Number of faces shared with processor 46 = 256
    Number of faces shared with processor 63 = 128
    Number of faces shared with processor 111 = 128
    Number of processor patches = 4
    Number of processor faces = 640
    Number of boundary faces = 384

Processor 48
    Number of cells = 2048
    Number of faces shared with processor 32 = 128
    Number of faces shared with processor 49 = 256
    Number of faces shared with processor 112 = 128
    Number of processor patches = 3
    Number of processor faces = 512
    Number of boundary faces = 512

Processor 49
    Number of cells = 2048
    Number of faces shared with processor 33 = 128
    Number of faces shared with processor 48 = 256
    Number of faces shared with processor 50 = 256
    Number of faces shared with processor 113 = 128
    Number of processor patches = 4
    Number of processor faces = 768
    Number of boundary faces = 256

Processor 50
    Number of cells = 2048
    Number of faces shared with processor 34 = 128
    Number of faces shared with processor 49 = 256
    Number of faces shared with processor 51 = 256
    Number of faces shared with processor 114 = 128
    Number of processor patches = 4
    Number of processor faces = 768
    Number of boundary faces = 256

Processor 51
    Number of cells = 2048
    Number of faces shared with processor 35 = 128
    Number of faces shared with processor 50 = 256
    Number of faces shared with processor 52 = 256
    Number of faces shared with processor 115 = 128
    Number of processor patches = 4
    Number of processor faces = 768
    Number of boundary faces = 256

Processor 52
    Number of cells = 2048
    Number of faces shared with processor 36 = 128
    Number of faces shared with processor 51 = 256
    Number of faces shared with processor 53 = 256
    Number of faces shared with processor 116 = 128
    Number of processor patches = 4
    Number of processor faces = 768
    Number of boundary faces = 256

Processor 53
    Number of cells = 2048
    Number of faces shared with processor 37 = 128
    Number of faces shared with processor 52 = 256
    Number of faces shared with processor 54 = 256
    Number of faces shared with processor 117 = 128
    Number of processor patches = 4
    Number of processor faces = 768
    Number of boundary faces = 256

Processor 54
    Number of cells = 2048
    Number of faces shared with processor 38 = 128
    Number of faces shared with processor 53 = 256
    Number of faces shared with processor 55 = 256
    Number of faces shared with processor 118 = 128
    Number of processor patches = 4
    Number of processor faces = 768
    Number of boundary faces = 256

Processor 55
    Number of cells = 2048
    Number of faces shared with processor 39 = 128
    Number of faces shared with processor 54 = 256
    Number of faces shared with processor 56 = 256
    Number of faces shared with processor 119 = 128
    Number of processor patches = 4
    Number of processor faces = 768
    Number of boundary faces = 256

Processor 56
    Number of cells = 2048
    Number of faces shared with processor 40 = 128
    Number of faces shared with processor 55 = 256
    Number of faces shared with processor 57 = 256
    Number of faces shared with processor 120 = 128
    Number of processor patches = 4
    Number of processor faces = 768
    Number of boundary faces = 256

Processor 57
    Number of cells = 2048
    Number of faces shared with processor 41 = 128
    Number of faces shared with processor 56 = 256
    Number of faces shared with processor 58 = 256
    Number of faces shared with processor 121 = 128
    Number of processor patches = 4
    Number of processor faces = 768
    Number of boundary faces = 256

Processor 58
    Number of cells = 2048
    Number of faces shared with processor 42 = 128
    Number of faces shared with processor 57 = 256
    Number of faces shared with processor 59 = 256
    Number of faces shared with processor 122 = 128
    Number of processor patches = 4
    Number of processor faces = 768
    Number of boundary faces = 256

Processor 59
    Number of cells = 2048
    Number of faces shared with processor 43 = 128
    Number of faces shared with processor 58 = 256
    Number of faces shared with processor 60 = 256
    Number of faces shared with processor 123 = 128
    Number of processor patches = 4
    Number of processor faces = 768
    Number of boundary faces = 256

Processor 60
    Number of cells = 2048
    Number of faces shared with processor 44 = 128
    Number of faces shared with processor 59 = 256
    Number of faces shared with processor 61 = 256
    Number of faces shared with processor 124 = 128
    Number of processor patches = 4
    Number of processor faces = 768
    Number of boundary faces = 256

Processor 61
    Number of cells = 2048
    Number of faces shared with processor 45 = 128
    Number of faces shared with processor 60 = 256
    Number of faces shared with processor 62 = 256
    Number of faces shared with processor 125 = 128
    Number of processor patches = 4
    Number of processor faces = 768
    Number of boundary faces = 256

Processor 62
    Number of cells = 2048
    Number of faces shared with processor 46 = 128
    Number of faces shared with processor 61 = 256
    Number of faces shared with processor 63 = 256
    Number of faces shared with processor 126 = 128
    Number of processor patches = 4
    Number of processor faces = 768
    Number of boundary faces = 256

Processor 63
    Number of cells = 2048
    Number of faces shared with processor 47 = 128
    Number of faces shared with processor 62 = 256
    Number of faces shared with processor 127 = 128
    Number of processor patches = 3
    Number of processor faces = 512
    Number of boundary faces = 512

Processor 64
    Number of cells = 2048
    Number of faces shared with processor 128 = 128
    Number of faces shared with processor 0 = 128
    Number of faces shared with processor 65 = 256
    Number of faces shared with processor 80 = 128
    Number of processor patches = 4
    Number of processor faces = 640
    Number of boundary faces = 384

Processor 65
    Number of cells = 2048
    Number of faces shared with processor 129 = 128
    Number of faces shared with processor 1 = 128
    Number of faces shared with processor 64 = 256
    Number of faces shared with processor 66 = 256
    Number of faces shared with processor 81 = 128
    Number of processor patches = 5
    Number of processor faces = 896
    Number of boundary faces = 128

Processor 66
    Number of cells = 2048
    Number of faces shared with processor 130 = 128
    Number of faces shared with processor 2 = 128
    Number of faces shared with processor 65 = 256
    Number of faces shared with processor 67 = 256
    Number of faces shared with processor 82 = 128
    Number of processor patches = 5
    Number of processor faces = 896
    Number of boundary faces = 128

Processor 67
    Number of cells = 2048
    Number of faces shared with processor 131 = 128
    Number of faces shared with processor 3 = 128
    Number of faces shared with processor 66 = 256
    Number of faces shared with processor 68 = 256
    Number of faces shared with processor 83 = 128
    Number of processor patches = 5
    Number of processor faces = 896
    Number of boundary faces = 128

Processor 68
    Number of cells = 2048
    Number of faces shared with processor 132 = 128
    Number of faces shared with processor 4 = 128
    Number of faces shared with processor 67 = 256
    Number of faces shared with processor 69 = 256
    Number of faces shared with processor 84 = 128
    Number of processor patches = 5
    Number of processor faces = 896
    Number of boundary faces = 128

Processor 69
    Number of cells = 2048
    Number of faces shared with processor 133 = 128
    Number of faces shared with processor 5 = 128
    Number of faces shared with processor 68 = 256
    Number of faces shared with processor 70 = 256
    Number of faces shared with processor 85 = 128
    Number of processor patches = 5
    Number of processor faces = 896
    Number of boundary faces = 128

Processor 70
    Number of cells = 2048
    Number of faces shared with processor 134 = 128
    Number of faces shared with processor 6 = 128
    Number of faces shared with processor 69 = 256
    Number of faces shared with processor 71 = 256
    Number of faces shared with processor 86 = 128
    Number of processor patches = 5
    Number of processor faces = 896
    Number of boundary faces = 128

Processor 71
    Number of cells = 2048
    Number of faces shared with processor 135 = 128
    Number of faces shared with processor 7 = 128
    Number of faces shared with processor 70 = 256
    Number of faces shared with processor 72 = 256
    Number of faces shared with processor 87 = 128
    Number of processor patches = 5
    Number of processor faces = 896
    Number of boundary faces = 128

Processor 72
    Number of cells = 2048
    Number of faces shared with processor 136 = 128
    Number of faces shared with processor 8 = 128
    Number of faces shared with processor 71 = 256
    Number of faces shared with processor 73 = 256
    Number of faces shared with processor 88 = 128
    Number of processor patches = 5
    Number of processor faces = 896
    Number of boundary faces = 128

Processor 73
    Number of cells = 2048
    Number of faces shared with processor 137 = 128
    Number of faces shared with processor 9 = 128
    Number of faces shared with processor 72 = 256
    Number of faces shared with processor 74 = 256
    Number of faces shared with processor 89 = 128
    Number of processor patches = 5
    Number of processor faces = 896
    Number of boundary faces = 128

Processor 74
    Number of cells = 2048
    Number of faces shared with processor 138 = 128
    Number of faces shared with processor 10 = 128
    Number of faces shared with processor 73 = 256
    Number of faces shared with processor 75 = 256
    Number of faces shared with processor 90 = 128
    Number of processor patches = 5
    Number of processor faces = 896
    Number of boundary faces = 128

Processor 75
    Number of cells = 2048
    Number of faces shared with processor 139 = 128
    Number of faces shared with processor 11 = 128
    Number of faces shared with processor 74 = 256
    Number of faces shared with processor 76 = 256
    Number of faces shared with processor 91 = 128
    Number of processor patches = 5
    Number of processor faces = 896
    Number of boundary faces = 128

Processor 76
    Number of cells = 2048
    Number of faces shared with processor 140 = 128
    Number of faces shared with processor 12 = 128
    Number of faces shared with processor 75 = 256
    Number of faces shared with processor 77 = 256
    Number of faces shared with processor 92 = 128
    Number of processor patches = 5
    Number of processor faces = 896
    Number of boundary faces = 128

Processor 77
    Number of cells = 2048
    Number of faces shared with processor 141 = 128
    Number of faces shared with processor 13 = 128
    Number of faces shared with processor 76 = 256
    Number of faces shared with processor 78 = 256
    Number of faces shared with processor 93 = 128
    Number of processor patches = 5
    Number of processor faces = 896
    Number of boundary faces = 128

Processor 78
    Number of cells = 2048
    Number of faces shared with processor 142 = 128
    Number of faces shared with processor 14 = 128
    Number of faces shared with processor 77 = 256
    Number of faces shared with processor 79 = 256
    Number of faces shared with processor 94 = 128
    Number of processor patches = 5
    Number of processor faces = 896
    Number of boundary faces = 128

Processor 79
    Number of cells = 2048
    Number of faces shared with processor 143 = 128
    Number of faces shared with processor 15 = 128
    Number of faces shared with processor 78 = 256
    Number of faces shared with processor 95 = 128
    Number of processor patches = 4
    Number of processor faces = 640
    Number of boundary faces = 384

Processor 80
    Number of cells = 2048
    Number of faces shared with processor 144 = 128
    Number of faces shared with processor 16 = 128
    Number of faces shared with processor 64 = 128
    Number of faces shared with processor 81 = 256
    Number of faces shared with processor 96 = 128
    Number of processor patches = 5
    Number of processor faces = 768
    Number of boundary faces = 256

Processor 81
    Number of cells = 2048
    Number of faces shared with processor 145 = 128
    Number of faces shared with processor 17 = 128
    Number of faces shared with processor 65 = 128
    Number of faces shared with processor 80 = 256
    Number of faces shared with processor 82 = 256
    Number of faces shared with processor 97 = 128
    Number of processor patches = 6
    Number of processor faces = 1024
    Number of boundary faces = 0

Processor 82
    Number of cells = 2048
    Number of faces shared with processor 146 = 128
    Number of faces shared with processor 18 = 128
    Number of faces shared with processor 66 = 128
    Number of faces shared with processor 81 = 256
    Number of faces shared with processor 83 = 256
    Number of faces shared with processor 98 = 128
    Number of processor patches = 6
    Number of processor faces = 1024
    Number of boundary faces = 0

Processor 83
    Number of cells = 2048
    Number of faces shared with processor 147 = 128
    Number of faces shared with processor 19 = 128
    Number of faces shared with processor 67 = 128
    Number of faces shared with processor 82 = 256
    Number of faces shared with processor 84 = 256
    Number of faces shared with processor 99 = 128
    Number of processor patches = 6
    Number of processor faces = 1024
    Number of boundary faces = 0

Processor 84
    Number of cells = 2048
    Number of faces shared with processor 148 = 128
    Number of faces shared with processor 20 = 128
    Number of faces shared with processor 68 = 128
    Number of faces shared with processor 83 = 256
    Number of faces shared with processor 85 = 256
    Number of faces shared with processor 100 = 128
    Number of processor patches = 6
    Number of processor faces = 1024
    Number of boundary faces = 0

Processor 85
    Number of cells = 2048
    Number of faces shared with processor 149 = 128
    Number of faces shared with processor 21 = 128
    Number of faces shared with processor 69 = 128
    Number of faces shared with processor 84 = 256
    Number of faces shared with processor 86 = 256
    Number of faces shared with processor 101 = 128
    Number of processor patches = 6
    Number of processor faces = 1024
    Number of boundary faces = 0

Processor 86
    Number of cells = 2048
    Number of faces shared with processor 150 = 128
    Number of faces shared with processor 22 = 128
    Number of faces shared with processor 70 = 128
    Number of faces shared with processor 85 = 256
    Number of faces shared with processor 87 = 256
    Number of faces shared with processor 102 = 128
    Number of processor patches = 6
    Number of processor faces = 1024
    Number of boundary faces = 0

Processor 87
    Number of cells = 2048
    Number of faces shared with processor 151 = 128
    Number of faces shared with processor 23 = 128
    Number of faces shared with processor 71 = 128
    Number of faces shared with processor 86 = 256
    Number of faces shared with processor 88 = 256
    Number of faces shared with processor 103 = 128
    Number of processor patches = 6
    Number of processor faces = 1024
    Number of boundary faces = 0

Processor 88
    Number of cells = 2048
    Number of faces shared with processor 152 = 128
    Number of faces shared with processor 24 = 128
    Number of faces shared with processor 72 = 128
    Number of faces shared with processor 87 = 256
    Number of faces shared with processor 89 = 256
    Number of faces shared with processor 104 = 128
    Number of processor patches = 6
    Number of processor faces = 1024
    Number of boundary faces = 0

Processor 89
    Number of cells = 2048
    Number of faces shared with processor 153 = 128
    Number of faces shared with processor 25 = 128
    Number of faces shared with processor 73 = 128
    Number of faces shared with processor 88 = 256
    Number of faces shared with processor 90 = 256
    Number of faces shared with processor 105 = 128
    Number of processor patches = 6
    Number of processor faces = 1024
    Number of boundary faces = 0

Processor 90
    Number of cells = 2048
    Number of faces shared with processor 154 = 128
    Number of faces shared with processor 26 = 128
    Number of faces shared with processor 74 = 128
    Number of faces shared with processor 89 = 256
    Number of faces shared with processor 91 = 256
    Number of faces shared with processor 106 = 128
    Number of processor patches = 6
    Number of processor faces = 1024
    Number of boundary faces = 0

Processor 91
    Number of cells = 2048
    Number of faces shared with processor 155 = 128
    Number of faces shared with processor 27 = 128
    Number of faces shared with processor 75 = 128
    Number of faces shared with processor 90 = 256
    Number of faces shared with processor 92 = 256
    Number of faces shared with processor 107 = 128
    Number of processor patches = 6
    Number of processor faces = 1024
    Number of boundary faces = 0

Processor 92
    Number of cells = 2048
    Number of faces shared with processor 156 = 128
    Number of faces shared with processor 28 = 128
    Number of faces shared with processor 76 = 128
    Number of faces shared with processor 91 = 256
    Number of faces shared with processor 93 = 256
    Number of faces shared with processor 108 = 128
    Number of processor patches = 6
    Number of processor faces = 1024
    Number of boundary faces = 0

Processor 93
    Number of cells = 2048
    Number of faces shared with processor 157 = 128
    Number of faces shared with processor 29 = 128
    Number of faces shared with processor 77 = 128
    Number of faces shared with processor 92 = 256
    Number of faces shared with processor 94 = 256
    Number of faces shared with processor 109 = 128
    Number of processor patches = 6
    Number of processor faces = 1024
    Number of boundary faces = 0

Processor 94
    Number of cells = 2048
    Number of faces shared with processor 158 = 128
    Number of faces shared with processor 30 = 128
    Number of faces shared with processor 78 = 128
    Number of faces shared with processor 93 = 256
    Number of faces shared with processor 95 = 256
    Number of faces shared with processor 110 = 128
    Number of processor patches = 6
    Number of processor faces = 1024
    Number of boundary faces = 0

Processor 95
    Number of cells = 2048
    Number of faces shared with processor 159 = 128
    Number of faces shared with processor 31 = 128
    Number of faces shared with processor 79 = 128
    Number of faces shared with processor 94 = 256
    Number of faces shared with processor 111 = 128
    Number of processor patches = 5
    Number of processor faces = 768
    Number of boundary faces = 256

Processor 96
    Number of cells = 2048
    Number of faces shared with processor 160 = 128
    Number of faces shared with processor 32 = 128
    Number of faces shared with processor 80 = 128
    Number of faces shared with processor 97 = 256
    Number of faces shared with processor 112 = 128
    Number of processor patches = 5
    Number of processor faces = 768
    Number of boundary faces = 256

Processor 97
    Number of cells = 2048
    Number of faces shared with processor 161 = 128
    Number of faces shared with processor 33 = 128
    Number of faces shared with processor 81 = 128
    Number of faces shared with processor 96 = 256
    Number of faces shared with processor 98 = 256
    Number of faces shared with processor 113 = 128
    Number of processor patches = 6
    Number of processor faces = 1024
    Number of boundary faces = 0

Processor 98
    Number of cells = 2048
    Number of faces shared with processor 162 = 128
    Number of faces shared with processor 34 = 128
    Number of faces shared with processor 82 = 128
    Number of faces shared with processor 97 = 256
    Number of faces shared with processor 99 = 256
    Number of faces shared with processor 114 = 128
    Number of processor patches = 6
    Number of processor faces = 1024
    Number of boundary faces = 0

Processor 99
    Number of cells = 2048
    Number of faces shared with processor 163 = 128
    Number of faces shared with processor 35 = 128
    Number of faces shared with processor 83 = 128
    Number of faces shared with processor 98 = 256
    Number of faces shared with processor 100 = 256
    Number of faces shared with processor 115 = 128
    Number of processor patches = 6
    Number of processor faces = 1024
    Number of boundary faces = 0

Processor 100
    Number of cells = 2048
    Number of faces shared with processor 164 = 128
    Number of faces shared with processor 36 = 128
    Number of faces shared with processor 84 = 128
    Number of faces shared with processor 99 = 256
    Number of faces shared with processor 101 = 256
    Number of faces shared with processor 116 = 128
    Number of processor patches = 6
    Number of processor faces = 1024
    Number of boundary faces = 0

Processor 101
    Number of cells = 2048
    Number of faces shared with processor 165 = 128
    Number of faces shared with processor 37 = 128
    Number of faces shared with processor 85 = 128
    Number of faces shared with processor 100 = 256
    Number of faces shared with processor 102 = 256
    Number of faces shared with processor 117 = 128
    Number of processor patches = 6
    Number of processor faces = 1024
    Number of boundary faces = 0

Processor 102
    Number of cells = 2048
    Number of faces shared with processor 166 = 128
    Number of faces shared with processor 38 = 128
    Number of faces shared with processor 86 = 128
    Number of faces shared with processor 101 = 256
    Number of faces shared with processor 103 = 256
    Number of faces shared with processor 118 = 128
    Number of processor patches = 6
    Number of processor faces = 1024
    Number of boundary faces = 0

Processor 103
    Number of cells = 2048
    Number of faces shared with processor 167 = 128
    Number of faces shared with processor 39 = 128
    Number of faces shared with processor 87 = 128
    Number of faces shared with processor 102 = 256
    Number of faces shared with processor 104 = 256
    Number of faces shared with processor 119 = 128
    Number of processor patches = 6
    Number of processor faces = 1024
    Number of boundary faces = 0

Processor 104
    Number of cells = 2048
    Number of faces shared with processor 168 = 128
    Number of faces shared with processor 40 = 128
    Number of faces shared with processor 88 = 128
    Number of faces shared with processor 103 = 256
    Number of faces shared with processor 105 = 256
    Number of faces shared with processor 120 = 128
    Number of processor patches = 6
    Number of processor faces = 1024
    Number of boundary faces = 0

Processor 105
    Number of cells = 2048
    Number of faces shared with processor 169 = 128
    Number of faces shared with processor 41 = 128
    Number of faces shared with processor 89 = 128
    Number of faces shared with processor 104 = 256
    Number of faces shared with processor 106 = 256
    Number of faces shared with processor 121 = 128
    Number of processor patches = 6
    Number of processor faces = 1024
    Number of boundary faces = 0

Processor 106
    Number of cells = 2048
    Number of faces shared with processor 170 = 128
    Number of faces shared with processor 42 = 128
    Number of faces shared with processor 90 = 128
    Number of faces shared with processor 105 = 256
    Number of faces shared with processor 107 = 256
    Number of faces shared with processor 122 = 128
    Number of processor patches = 6
    Number of processor faces = 1024
    Number of boundary faces = 0

Processor 107
    Number of cells = 2048
    Number of faces shared with processor 171 = 128
    Number of faces shared with processor 43 = 128
    Number of faces shared with processor 91 = 128
    Number of faces shared with processor 106 = 256
    Number of faces shared with processor 108 = 256
    Number of faces shared with processor 123 = 128
    Number of processor patches = 6
    Number of processor faces = 1024
    Number of boundary faces = 0

Processor 108
    Number of cells = 2048
    Number of faces shared with processor 172 = 128
    Number of faces shared with processor 44 = 128
    Number of faces shared with processor 92 = 128
    Number of faces shared with processor 107 = 256
    Number of faces shared with processor 109 = 256
    Number of faces shared with processor 124 = 128
    Number of processor patches = 6
    Number of processor faces = 1024
    Number of boundary faces = 0

Processor 109
    Number of cells = 2048
    Number of faces shared with processor 173 = 128
    Number of faces shared with processor 45 = 128
    Number of faces shared with processor 93 = 128
    Number of faces shared with processor 108 = 256
    Number of faces shared with processor 110 = 256
    Number of faces shared with processor 125 = 128
    Number of processor patches = 6
    Number of processor faces = 1024
    Number of boundary faces = 0

Processor 110
    Number of cells = 2048
    Number of faces shared with processor 174 = 128
    Number of faces shared with processor 46 = 128
    Number of faces shared with processor 94 = 128
    Number of faces shared with processor 109 = 256
    Number of faces shared with processor 111 = 256
    Number of faces shared with processor 126 = 128
    Number of processor patches = 6
    Number of processor faces = 1024
    Number of boundary faces = 0

Processor 111
    Number of cells = 2048
    Number of faces shared with processor 175 = 128
    Number of faces shared with processor 47 = 128
    Number of faces shared with processor 95 = 128
    Number of faces shared with processor 110 = 256
    Number of faces shared with processor 127 = 128
    Number of processor patches = 5
    Number of processor faces = 768
    Number of boundary faces = 256

Processor 112
    Number of cells = 2048
    Number of faces shared with processor 176 = 128
    Number of faces shared with processor 48 = 128
    Number of faces shared with processor 96 = 128
    Number of faces shared with processor 113 = 256
    Number of processor patches = 4
    Number of processor faces = 640
    Number of boundary faces = 384

Processor 113
    Number of cells = 2048
    Number of faces shared with processor 177 = 128
    Number of faces shared with processor 49 = 128
    Number of faces shared with processor 97 = 128
    Number of faces shared with processor 112 = 256
    Number of faces shared with processor 114 = 256
    Number of processor patches = 5
    Number of processor faces = 896
    Number of boundary faces = 128

Processor 114
    Number of cells = 2048
    Number of faces shared with processor 178 = 128
    Number of faces shared with processor 50 = 128
    Number of faces shared with processor 98 = 128
    Number of faces shared with processor 113 = 256
    Number of faces shared with processor 115 = 256
    Number of processor patches = 5
    Number of processor faces = 896
    Number of boundary faces = 128

Processor 115
    Number of cells = 2048
    Number of faces shared with processor 179 = 128
    Number of faces shared with processor 51 = 128
    Number of faces shared with processor 99 = 128
    Number of faces shared with processor 114 = 256
    Number of faces shared with processor 116 = 256
    Number of processor patches = 5
    Number of processor faces = 896
    Number of boundary faces = 128

Processor 116
    Number of cells = 2048
    Number of faces shared with processor 180 = 128
    Number of faces shared with processor 52 = 128
    Number of faces shared with processor 100 = 128
    Number of faces shared with processor 115 = 256
    Number of faces shared with processor 117 = 256
    Number of processor patches = 5
    Number of processor faces = 896
    Number of boundary faces = 128

Processor 117
    Number of cells = 2048
    Number of faces shared with processor 181 = 128
    Number of faces shared with processor 53 = 128
    Number of faces shared with processor 101 = 128
    Number of faces shared with processor 116 = 256
    Number of faces shared with processor 118 = 256
    Number of processor patches = 5
    Number of processor faces = 896
    Number of boundary faces = 128

Processor 118
    Number of cells = 2048
    Number of faces shared with processor 182 = 128
    Number of faces shared with processor 54 = 128
    Number of faces shared with processor 102 = 128
    Number of faces shared with processor 117 = 256
    Number of faces shared with processor 119 = 256
    Number of processor patches = 5
    Number of processor faces = 896
    Number of boundary faces = 128

Processor 119
    Number of cells = 2048
    Number of faces shared with processor 183 = 128
    Number of faces shared with processor 55 = 128
    Number of faces shared with processor 103 = 128
    Number of faces shared with processor 118 = 256
    Number of faces shared with processor 120 = 256
    Number of processor patches = 5
    Number of processor faces = 896
    Number of boundary faces = 128

Processor 120
    Number of cells = 2048
    Number of faces shared with processor 184 = 128
    Number of faces shared with processor 56 = 128
    Number of faces shared with processor 104 = 128
    Number of faces shared with processor 119 = 256
    Number of faces shared with processor 121 = 256
    Number of processor patches = 5
    Number of processor faces = 896
    Number of boundary faces = 128

Processor 121
    Number of cells = 2048
    Number of faces shared with processor 185 = 128
    Number of faces shared with processor 57 = 128
    Number of faces shared with processor 105 = 128
    Number of faces shared with processor 120 = 256
    Number of faces shared with processor 122 = 256
    Number of processor patches = 5
    Number of processor faces = 896
    Number of boundary faces = 128

Processor 122
    Number of cells = 2048
    Number of faces shared with processor 186 = 128
    Number of faces shared with processor 58 = 128
    Number of faces shared with processor 106 = 128
    Number of faces shared with processor 121 = 256
    Number of faces shared with processor 123 = 256
    Number of processor patches = 5
    Number of processor faces = 896
    Number of boundary faces = 128

Processor 123
    Number of cells = 2048
    Number of faces shared with processor 187 = 128
    Number of faces shared with processor 59 = 128
    Number of faces shared with processor 107 = 128
    Number of faces shared with processor 122 = 256
    Number of faces shared with processor 124 = 256
    Number of processor patches = 5
    Number of processor faces = 896
    Number of boundary faces = 128

Processor 124
    Number of cells = 2048
    Number of faces shared with processor 188 = 128
    Number of faces shared with processor 60 = 128
    Number of faces shared with processor 108 = 128
    Number of faces shared with processor 123 = 256
    Number of faces shared with processor 125 = 256
    Number of processor patches = 5
    Number of processor faces = 896
    Number of boundary faces = 128

Processor 125
    Number of cells = 2048
    Number of faces shared with processor 189 = 128
    Number of faces shared with processor 61 = 128
    Number of faces shared with processor 109 = 128
    Number of faces shared with processor 124 = 256
    Number of faces shared with processor 126 = 256
    Number of processor patches = 5
    Number of processor faces = 896
    Number of boundary faces = 128

Processor 126
    Number of cells = 2048
    Number of faces shared with processor 190 = 128
    Number of faces shared with processor 62 = 128
    Number of faces shared with processor 110 = 128
    Number of faces shared with processor 125 = 256
    Number of faces shared with processor 127 = 256
    Number of processor patches = 5
    Number of processor faces = 896
    Number of boundary faces = 128

Processor 127
    Number of cells = 2048
    Number of faces shared with processor 191 = 128
    Number of faces shared with processor 63 = 128
    Number of faces shared with processor 111 = 128
    Number of faces shared with processor 126 = 256
    Number of processor patches = 4
    Number of processor faces = 640
    Number of boundary faces = 384

Processor 128
    Number of cells = 2048
    Number of faces shared with processor 129 = 256
    Number of faces shared with processor 144 = 128
    Number of faces shared with processor 192 = 128
    Number of faces shared with processor 64 = 128
    Number of processor patches = 4
    Number of processor faces = 640
    Number of boundary faces = 384

Processor 129
    Number of cells = 2048
    Number of faces shared with processor 128 = 256
    Number of faces shared with processor 130 = 256
    Number of faces shared with processor 145 = 128
    Number of faces shared with processor 193 = 128
    Number of faces shared with processor 65 = 128
    Number of processor patches = 5
    Number of processor faces = 896
    Number of boundary faces = 128

Processor 130
    Number of cells = 2048
    Number of faces shared with processor 129 = 256
    Number of faces shared with processor 131 = 256
    Number of faces shared with processor 146 = 128
    Number of faces shared with processor 194 = 128
    Number of faces shared with processor 66 = 128
    Number of processor patches = 5
    Number of processor faces = 896
    Number of boundary faces = 128

Processor 131
    Number of cells = 2048
    Number of faces shared with processor 130 = 256
    Number of faces shared with processor 132 = 256
    Number of faces shared with processor 147 = 128
    Number of faces shared with processor 195 = 128
    Number of faces shared with processor 67 = 128
    Number of processor patches = 5
    Number of processor faces = 896
    Number of boundary faces = 128

Processor 132
    Number of cells = 2048
    Number of faces shared with processor 131 = 256
    Number of faces shared with processor 133 = 256
    Number of faces shared with processor 148 = 128
    Number of faces shared with processor 196 = 128
    Number of faces shared with processor 68 = 128
    Number of processor patches = 5
    Number of processor faces = 896
    Number of boundary faces = 128

Processor 133
    Number of cells = 2048
    Number of faces shared with processor 132 = 256
    Number of faces shared with processor 134 = 256
    Number of faces shared with processor 149 = 128
    Number of faces shared with processor 197 = 128
    Number of faces shared with processor 69 = 128
    Number of processor patches = 5
    Number of processor faces = 896
    Number of boundary faces = 128

Processor 134
    Number of cells = 2048
    Number of faces shared with processor 133 = 256
    Number of faces shared with processor 135 = 256
    Number of faces shared with processor 150 = 128
    Number of faces shared with processor 198 = 128
    Number of faces shared with processor 70 = 128
    Number of processor patches = 5
    Number of processor faces = 896
    Number of boundary faces = 128

Processor 135
    Number of cells = 2048
    Number of faces shared with processor 134 = 256
    Number of faces shared with processor 136 = 256
    Number of faces shared with processor 151 = 128
    Number of faces shared with processor 199 = 128
    Number of faces shared with processor 71 = 128
    Number of processor patches = 5
    Number of processor faces = 896
    Number of boundary faces = 128

Processor 136
    Number of cells = 2048
    Number of faces shared with processor 135 = 256
    Number of faces shared with processor 137 = 256
    Number of faces shared with processor 152 = 128
    Number of faces shared with processor 200 = 128
    Number of faces shared with processor 72 = 128
    Number of processor patches = 5
    Number of processor faces = 896
    Number of boundary faces = 128

Processor 137
    Number of cells = 2048
    Number of faces shared with processor 136 = 256
    Number of faces shared with processor 138 = 256
    Number of faces shared with processor 153 = 128
    Number of faces shared with processor 201 = 128
    Number of faces shared with processor 73 = 128
    Number of processor patches = 5
    Number of processor faces = 896
    Number of boundary faces = 128

Processor 138
    Number of cells = 2048
    Number of faces shared with processor 137 = 256
    Number of faces shared with processor 139 = 256
    Number of faces shared with processor 154 = 128
    Number of faces shared with processor 202 = 128
    Number of faces shared with processor 74 = 128
    Number of processor patches = 5
    Number of processor faces = 896
    Number of boundary faces = 128

Processor 139
    Number of cells = 2048
    Number of faces shared with processor 138 = 256
    Number of faces shared with processor 140 = 256
    Number of faces shared with processor 155 = 128
    Number of faces shared with processor 203 = 128
    Number of faces shared with processor 75 = 128
    Number of processor patches = 5
    Number of processor faces = 896
    Number of boundary faces = 128

Processor 140
    Number of cells = 2048
    Number of faces shared with processor 139 = 256
    Number of faces shared with processor 141 = 256
    Number of faces shared with processor 156 = 128
    Number of faces shared with processor 204 = 128
    Number of faces shared with processor 76 = 128
    Number of processor patches = 5
    Number of processor faces = 896
    Number of boundary faces = 128

Processor 141
    Number of cells = 2048
    Number of faces shared with processor 140 = 256
    Number of faces shared with processor 142 = 256
    Number of faces shared with processor 157 = 128
    Number of faces shared with processor 205 = 128
    Number of faces shared with processor 77 = 128
    Number of processor patches = 5
    Number of processor faces = 896
    Number of boundary faces = 128

Processor 142
    Number of cells = 2048
    Number of faces shared with processor 141 = 256
    Number of faces shared with processor 143 = 256
    Number of faces shared with processor 158 = 128
    Number of faces shared with processor 206 = 128
    Number of faces shared with processor 78 = 128
    Number of processor patches = 5
    Number of processor faces = 896
    Number of boundary faces = 128

Processor 143
    Number of cells = 2048
    Number of faces shared with processor 142 = 256
    Number of faces shared with processor 159 = 128
    Number of faces shared with processor 207 = 128
    Number of faces shared with processor 79 = 128
    Number of processor patches = 4
    Number of processor faces = 640
    Number of boundary faces = 384

Processor 144
    Number of cells = 2048
    Number of faces shared with processor 128 = 128
    Number of faces shared with processor 145 = 256
    Number of faces shared with processor 160 = 128
    Number of faces shared with processor 208 = 128
    Number of faces shared with processor 80 = 128
    Number of processor patches = 5
    Number of processor faces = 768
    Number of boundary faces = 256

Processor 145
    Number of cells = 2048
    Number of faces shared with processor 129 = 128
    Number of faces shared with processor 144 = 256
    Number of faces shared with processor 146 = 256
    Number of faces shared with processor 161 = 128
    Number of faces shared with processor 209 = 128
    Number of faces shared with processor 81 = 128
    Number of processor patches = 6
    Number of processor faces = 1024
    Number of boundary faces = 0

Processor 146
    Number of cells = 2048
    Number of faces shared with processor 130 = 128
    Number of faces shared with processor 145 = 256
    Number of faces shared with processor 147 = 256
    Number of faces shared with processor 162 = 128
    Number of faces shared with processor 210 = 128
    Number of faces shared with processor 82 = 128
    Number of processor patches = 6
    Number of processor faces = 1024
    Number of boundary faces = 0

Processor 147
    Number of cells = 2048
    Number of faces shared with processor 131 = 128
    Number of faces shared with processor 146 = 256
    Number of faces shared with processor 148 = 256
    Number of faces shared with processor 163 = 128
    Number of faces shared with processor 211 = 128
    Number of faces shared with processor 83 = 128
    Number of processor patches = 6
    Number of processor faces = 1024
    Number of boundary faces = 0

Processor 148
    Number of cells = 2048
    Number of faces shared with processor 132 = 128
    Number of faces shared with processor 147 = 256
    Number of faces shared with processor 149 = 256
    Number of faces shared with processor 164 = 128
    Number of faces shared with processor 212 = 128
    Number of faces shared with processor 84 = 128
    Number of processor patches = 6
    Number of processor faces = 1024
    Number of boundary faces = 0

Processor 149
    Number of cells = 2048
    Number of faces shared with processor 133 = 128
    Number of faces shared with processor 148 = 256
    Number of faces shared with processor 150 = 256
    Number of faces shared with processor 165 = 128
    Number of faces shared with processor 213 = 128
    Number of faces shared with processor 85 = 128
    Number of processor patches = 6
    Number of processor faces = 1024
    Number of boundary faces = 0

Processor 150
    Number of cells = 2048
    Number of faces shared with processor 134 = 128
    Number of faces shared with processor 149 = 256
    Number of faces shared with processor 151 = 256
    Number of faces shared with processor 166 = 128
    Number of faces shared with processor 214 = 128
    Number of faces shared with processor 86 = 128
    Number of processor patches = 6
    Number of processor faces = 1024
    Number of boundary faces = 0

Processor 151
    Number of cells = 2048
    Number of faces shared with processor 135 = 128
    Number of faces shared with processor 150 = 256
    Number of faces shared with processor 152 = 256
    Number of faces shared with processor 167 = 128
    Number of faces shared with processor 215 = 128
    Number of faces shared with processor 87 = 128
    Number of processor patches = 6
    Number of processor faces = 1024
    Number of boundary faces = 0

Processor 152
    Number of cells = 2048
    Number of faces shared with processor 136 = 128
    Number of faces shared with processor 151 = 256
    Number of faces shared with processor 153 = 256
    Number of faces shared with processor 168 = 128
    Number of faces shared with processor 216 = 128
    Number of faces shared with processor 88 = 128
    Number of processor patches = 6
    Number of processor faces = 1024
    Number of boundary faces = 0

Processor 153
    Number of cells = 2048
    Number of faces shared with processor 137 = 128
    Number of faces shared with processor 152 = 256
    Number of faces shared with processor 154 = 256
    Number of faces shared with processor 169 = 128
    Number of faces shared with processor 217 = 128
    Number of faces shared with processor 89 = 128
    Number of processor patches = 6
    Number of processor faces = 1024
    Number of boundary faces = 0

Processor 154
    Number of cells = 2048
    Number of faces shared with processor 138 = 128
    Number of faces shared with processor 153 = 256
    Number of faces shared with processor 155 = 256
    Number of faces shared with processor 170 = 128
    Number of faces shared with processor 218 = 128
    Number of faces shared with processor 90 = 128
    Number of processor patches = 6
    Number of processor faces = 1024
    Number of boundary faces = 0

Processor 155
    Number of cells = 2048
    Number of faces shared with processor 139 = 128
    Number of faces shared with processor 154 = 256
    Number of faces shared with processor 156 = 256
    Number of faces shared with processor 171 = 128
    Number of faces shared with processor 219 = 128
    Number of faces shared with processor 91 = 128
    Number of processor patches = 6
    Number of processor faces = 1024
    Number of boundary faces = 0

Processor 156
    Number of cells = 2048
    Number of faces shared with processor 140 = 128
    Number of faces shared with processor 155 = 256
    Number of faces shared with processor 157 = 256
    Number of faces shared with processor 172 = 128
    Number of faces shared with processor 220 = 128
    Number of faces shared with processor 92 = 128
    Number of processor patches = 6
    Number of processor faces = 1024
    Number of boundary faces = 0

Processor 157
    Number of cells = 2048
    Number of faces shared with processor 141 = 128
    Number of faces shared with processor 156 = 256
    Number of faces shared with processor 158 = 256
    Number of faces shared with processor 173 = 128
    Number of faces shared with processor 221 = 128
    Number of faces shared with processor 93 = 128
    Number of processor patches = 6
    Number of processor faces = 1024
    Number of boundary faces = 0

Processor 158
    Number of cells = 2048
    Number of faces shared with processor 142 = 128
    Number of faces shared with processor 157 = 256
    Number of faces shared with processor 159 = 256
    Number of faces shared with processor 174 = 128
    Number of faces shared with processor 222 = 128
    Number of faces shared with processor 94 = 128
    Number of processor patches = 6
    Number of processor faces = 1024
    Number of boundary faces = 0

Processor 159
    Number of cells = 2048
    Number of faces shared with processor 143 = 128
    Number of faces shared with processor 158 = 256
    Number of faces shared with processor 175 = 128
    Number of faces shared with processor 223 = 128
    Number of faces shared with processor 95 = 128
    Number of processor patches = 5
    Number of processor faces = 768
    Number of boundary faces = 256

Processor 160
    Number of cells = 2048
    Number of faces shared with processor 144 = 128
    Number of faces shared with processor 161 = 256
    Number of faces shared with processor 176 = 128
    Number of faces shared with processor 224 = 128
    Number of faces shared with processor 96 = 128
    Number of processor patches = 5
    Number of processor faces = 768
    Number of boundary faces = 256

Processor 161
    Number of cells = 2048
    Number of faces shared with processor 145 = 128
    Number of faces shared with processor 160 = 256
    Number of faces shared with processor 162 = 256
    Number of faces shared with processor 177 = 128
    Number of faces shared with processor 225 = 128
    Number of faces shared with processor 97 = 128
    Number of processor patches = 6
    Number of processor faces = 1024
    Number of boundary faces = 0

Processor 162
    Number of cells = 2048
    Number of faces shared with processor 146 = 128
    Number of faces shared with processor 161 = 256
    Number of faces shared with processor 163 = 256
    Number of faces shared with processor 178 = 128
    Number of faces shared with processor 226 = 128
    Number of faces shared with processor 98 = 128
    Number of processor patches = 6
    Number of processor faces = 1024
    Number of boundary faces = 0

Processor 163
    Number of cells = 2048
    Number of faces shared with processor 147 = 128
    Number of faces shared with processor 162 = 256
    Number of faces shared with processor 164 = 256
    Number of faces shared with processor 179 = 128
    Number of faces shared with processor 227 = 128
    Number of faces shared with processor 99 = 128
    Number of processor patches = 6
    Number of processor faces = 1024
    Number of boundary faces = 0

Processor 164
    Number of cells = 2048
    Number of faces shared with processor 148 = 128
    Number of faces shared with processor 163 = 256
    Number of faces shared with processor 165 = 256
    Number of faces shared with processor 180 = 128
    Number of faces shared with processor 228 = 128
    Number of faces shared with processor 100 = 128
    Number of processor patches = 6
    Number of processor faces = 1024
    Number of boundary faces = 0

Processor 165
    Number of cells = 2048
    Number of faces shared with processor 149 = 128
    Number of faces shared with processor 164 = 256
    Number of faces shared with processor 166 = 256
    Number of faces shared with processor 181 = 128
    Number of faces shared with processor 229 = 128
    Number of faces shared with processor 101 = 128
    Number of processor patches = 6
    Number of processor faces = 1024
    Number of boundary faces = 0

Processor 166
    Number of cells = 2048
    Number of faces shared with processor 150 = 128
    Number of faces shared with processor 165 = 256
    Number of faces shared with processor 167 = 256
    Number of faces shared with processor 182 = 128
    Number of faces shared with processor 230 = 128
    Number of faces shared with processor 102 = 128
    Number of processor patches = 6
    Number of processor faces = 1024
    Number of boundary faces = 0

Processor 167
    Number of cells = 2048
    Number of faces shared with processor 151 = 128
    Number of faces shared with processor 166 = 256
    Number of faces shared with processor 168 = 256
    Number of faces shared with processor 183 = 128
    Number of faces shared with processor 231 = 128
    Number of faces shared with processor 103 = 128
    Number of processor patches = 6
    Number of processor faces = 1024
    Number of boundary faces = 0

Processor 168
    Number of cells = 2048
    Number of faces shared with processor 152 = 128
    Number of faces shared with processor 167 = 256
    Number of faces shared with processor 169 = 256
    Number of faces shared with processor 184 = 128
    Number of faces shared with processor 232 = 128
    Number of faces shared with processor 104 = 128
    Number of processor patches = 6
    Number of processor faces = 1024
    Number of boundary faces = 0

Processor 169
    Number of cells = 2048
    Number of faces shared with processor 153 = 128
    Number of faces shared with processor 168 = 256
    Number of faces shared with processor 170 = 256
    Number of faces shared with processor 185 = 128
    Number of faces shared with processor 233 = 128
    Number of faces shared with processor 105 = 128
    Number of processor patches = 6
    Number of processor faces = 1024
    Number of boundary faces = 0

Processor 170
    Number of cells = 2048
    Number of faces shared with processor 154 = 128
    Number of faces shared with processor 169 = 256
    Number of faces shared with processor 171 = 256
    Number of faces shared with processor 186 = 128
    Number of faces shared with processor 234 = 128
    Number of faces shared with processor 106 = 128
    Number of processor patches = 6
    Number of processor faces = 1024
    Number of boundary faces = 0

Processor 171
    Number of cells = 2048
    Number of faces shared with processor 155 = 128
    Number of faces shared with processor 170 = 256
    Number of faces shared with processor 172 = 256
    Number of faces shared with processor 187 = 128
    Number of faces shared with processor 235 = 128
    Number of faces shared with processor 107 = 128
    Number of processor patches = 6
    Number of processor faces = 1024
    Number of boundary faces = 0

Processor 172
    Number of cells = 2048
    Number of faces shared with processor 156 = 128
    Number of faces shared with processor 171 = 256
    Number of faces shared with processor 173 = 256
    Number of faces shared with processor 188 = 128
    Number of faces shared with processor 236 = 128
    Number of faces shared with processor 108 = 128
    Number of processor patches = 6
    Number of processor faces = 1024
    Number of boundary faces = 0

Processor 173
    Number of cells = 2048
    Number of faces shared with processor 157 = 128
    Number of faces shared with processor 172 = 256
    Number of faces shared with processor 174 = 256
    Number of faces shared with processor 189 = 128
    Number of faces shared with processor 237 = 128
    Number of faces shared with processor 109 = 128
    Number of processor patches = 6
    Number of processor faces = 1024
    Number of boundary faces = 0

Processor 174
    Number of cells = 2048
    Number of faces shared with processor 158 = 128
    Number of faces shared with processor 173 = 256
    Number of faces shared with processor 175 = 256
    Number of faces shared with processor 190 = 128
    Number of faces shared with processor 238 = 128
    Number of faces shared with processor 110 = 128
    Number of processor patches = 6
    Number of processor faces = 1024
    Number of boundary faces = 0

Processor 175
    Number of cells = 2048
    Number of faces shared with processor 159 = 128
    Number of faces shared with processor 174 = 256
    Number of faces shared with processor 191 = 128
    Number of faces shared with processor 239 = 128
    Number of faces shared with processor 111 = 128
    Number of processor patches = 5
    Number of processor faces = 768
    Number of boundary faces = 256

Processor 176
    Number of cells = 2048
    Number of faces shared with processor 160 = 128
    Number of faces shared with processor 177 = 256
    Number of faces shared with processor 240 = 128
    Number of faces shared with processor 112 = 128
    Number of processor patches = 4
    Number of processor faces = 640
    Number of boundary faces = 384

Processor 177
    Number of cells = 2048
    Number of faces shared with processor 161 = 128
    Number of faces shared with processor 176 = 256
    Number of faces shared with processor 178 = 256
    Number of faces shared with processor 241 = 128
    Number of faces shared with processor 113 = 128
    Number of processor patches = 5
    Number of processor faces = 896
    Number of boundary faces = 128

Processor 178
    Number of cells = 2048
    Number of faces shared with processor 162 = 128
    Number of faces shared with processor 177 = 256
    Number of faces shared with processor 179 = 256
    Number of faces shared with processor 242 = 128
    Number of faces shared with processor 114 = 128
    Number of processor patches = 5
    Number of processor faces = 896
    Number of boundary faces = 128

Processor 179
    Number of cells = 2048
    Number of faces shared with processor 163 = 128
    Number of faces shared with processor 178 = 256
    Number of faces shared with processor 180 = 256
    Number of faces shared with processor 243 = 128
    Number of faces shared with processor 115 = 128
    Number of processor patches = 5
    Number of processor faces = 896
    Number of boundary faces = 128

Processor 180
    Number of cells = 2048
    Number of faces shared with processor 164 = 128
    Number of faces shared with processor 179 = 256
    Number of faces shared with processor 181 = 256
    Number of faces shared with processor 244 = 128
    Number of faces shared with processor 116 = 128
    Number of processor patches = 5
    Number of processor faces = 896
    Number of boundary faces = 128

Processor 181
    Number of cells = 2048
    Number of faces shared with processor 165 = 128
    Number of faces shared with processor 180 = 256
    Number of faces shared with processor 182 = 256
    Number of faces shared with processor 245 = 128
    Number of faces shared with processor 117 = 128
    Number of processor patches = 5
    Number of processor faces = 896
    Number of boundary faces = 128

Processor 182
    Number of cells = 2048
    Number of faces shared with processor 166 = 128
    Number of faces shared with processor 181 = 256
    Number of faces shared with processor 183 = 256
[...]
[gra498:05452] [ 5] /cvmfs/soft.computecanada.ca/easybuild/software/2020/avx2/MPI/intel2020/openmpi4/openfoam/6/OpenFOAM-6/platforms/linux64IccDPInt32Opt/lib/libincompressibleTurbulenceModels.so(_ZNK4Foam9LESModels16LESeddyViscosityINS_29IncompressibleTurbulenceModelINS_14transportModelEEEE7epsilonEv+0x1c1)[0x2ad14ad00911]
[gra498:05452] [ 6] /scratch/hmarefat/torchFOAM/dynSmagCase/dynamicCode/platforms/linux64GccDPInt32Opt/lib/libpostLESFunc_8655eda9046ae4ad6f097b1fcf01d4693c56ce52.so(_ZN4Foam25postLESFuncFunctionObject7executeEv+0x1fb)[0x2ad16a0c573b]
[gra498:05452] [ 7] /cvmfs/soft.computecanada.ca/easybuild/software/2020/avx2/MPI/intel2020/openmpi4/openfoam/6/OpenFOAM-6/platforms/linux64IccDPInt32Opt/lib/libOpenFOAM.so(_ZN4Foam15functionObjects11timeControl7executeEv+0x40)[0x2ad15305de90]
[gra498:05452] [ 8] /cvmfs/soft.computecanada.ca/easybuild/software/2020/avx2/MPI/intel2020/openmpi4/openfoam/6/OpenFOAM-6/platforms/linux64IccDPInt32Opt/lib/libOpenFOAM.so(_ZN4Foam18functionObjectList7executeEv+0x7e)[0x2ad15304ccee]
[gra498:05452] [ 9] /cvmfs/soft.computecanada.ca/easybuild/software/2020/avx2/MPI/intel2020/openmpi4/openfoam/6/OpenFOAM-6/platforms/linux64IccDPInt32Opt/lib/libOpenFOAM.so(_ZNK4Foam4Time3runEv+0x97)[0x2ad1530666d7]
[gra498:05452] [10] /home/hmarefat/projects/def-alamj/shared/bin/v6/atmosphericLES[0x42c24a]
[gra498:05452] [11] /cvmfs/soft.computecanada.ca/gentoo/2020/lib64/libc.so.6(__libc_start_main+0xeb)[0x2ad15437be1b]
[gra498:05452] [12] /home/hmarefat/projects/def-alamj/shared/bin/v6/atmosphericLES[0x42322a]
[gra498:05452] *** End of error message ***
==== backtrace (tid:  11867) ====
 0 0x0000000000020753 ucs_debug_print_backtrace()  /tmp/ebuser/avx2/UCX/1.8.0/GCCcore-9.3.0/ucx-1.8.0/src/ucs/debug/debug.c:653
 1 0x0000000000038980 killpg()  ???:0
 2 0x0000000000038901 __libc_signal_restore_set()  /cvmfs/soft.computecanada.ca/gentoo/2020/usr/src/debug/sys-libs/glibc-2.30-r8/glibc-2.30/signal/../sysdeps/unix/sysv/linux/internal-signals.h:84
 3 0x0000000000038980 killpg()  ???:0
 4 0x0000000000b7b27f Foam::sqrt()  scalarField.C:0
 5 0x000000000022c774 Foam::sqrt<Foam::fvPatchField, Foam::volMesh>()  ???:0
 6 0x0000000000346911 Foam::LESModels::LESeddyViscosity<Foam::IncompressibleTurbulenceModel<Foam::transportModel> >::epsilon()  ???:0
 7 0x000000000002673b Foam::postLESFuncFunctionObject::execute()  /scratch/hmarefat/torchFOAM/dynSmagCase/system/controlDict.functions.postLESFunc:97
 8 0x000000000002673b Foam::postLESFuncFunctionObject::execute()  /scratch/hmarefat/torchFOAM/dynSmagCase/system/controlDict.functions.postLESFunc:98
 9 0x00000000005c1e90 Foam::functionObjects::timeControl::execute()  ???:0
10 0x00000000005b0cee Foam::functionObjectList::execute()  ???:0
11 0x00000000005ca6d7 Foam::Time::run()  ???:0
12 0x000000000042c24a main()  ???:0
13 0x0000000000023e1b __libc_start_main()  /cvmfs/soft.computecanada.ca/gentoo/2020/usr/src/debug/sys-libs/glibc-2.30-r8/glibc-2.30/csu/../csu/libc-start.c:308
14 0x000000000042322a _start()  ???:0
=================================
[gra487:11867] *** Process received signal ***
[gra487:11867] Signal: Floating point exception (8)
[gra487:11867] Signal code:  (-6)
[gra487:11867] Failing at address: 0x2f5c0700002e5b
[gra487:11867] [ 0] /cvmfs/soft.computecanada.ca/gentoo/2020/lib64/libpthread.so.0(+0x130f0)[0x2b3f723da0f0]
[gra487:11867] [ 1] /cvmfs/soft.computecanada.ca/gentoo/2020/lib64/libc.so.6(gsignal+0x141)[0x2b3f6cd29901]
[gra487:11867] [ 2] /cvmfs/soft.computecanada.ca/gentoo/2020/lib64/libc.so.6(+0x38980)[0x2b3f6cd29980]
[gra487:11867] [ 3] /cvmfs/soft.computecanada.ca/easybuild/software/2020/avx2/MPI/intel2020/openmpi4/openfoam/6/OpenFOAM-6/platforms/linux64IccDPInt32Opt/lib/libOpenFOAM.so(+0xb7b27f)[0x2b3f6bfb027f]
[gra487:11867] [ 4] /cvmfs/soft.computecanada.ca/easybuild/software/2020/avx2/MPI/intel2020/openmpi4/openfoam/6/OpenFOAM-6/platforms/linux64IccDPInt32Opt/lib/libincompressibleTurbulenceModels.so(_ZN4Foam4sqrtINS_12fvPatchFieldENS_7volMeshEEENS_3tmpINS_14GeometricFieldIdT_T0_EEEERKS7_+0x544)[0x2b3f6357f774]
[gra487:11867] [ 5] /cvmfs/soft.computecanada.ca/easybuild/software/2020/avx2/MPI/intel2020/openmpi4/openfoam/6/OpenFOAM-6/platforms/linux64IccDPInt32Opt/lib/libincompressibleTurbulenceModels.so(_ZNK4Foam9LESModels16LESeddyViscosityINS_29IncompressibleTurbulenceModelINS_14transportModelEEEE7epsilonEv+0x1c1)[0x2b3f63699911]
[gra487:11867] [ 6] /scratch/hmarefat/torchFOAM/dynSmagCase/dynamicCode/platforms/linux64GccDPInt32Opt/lib/libpostLESFunc_8655eda9046ae4ad6f097b1fcf01d4693c56ce52.so(_ZN4Foam25postLESFuncFunctionObject7executeEv+0x1fb)[0x2b3f82a5573b]
[gra487:11867] [ 7] /cvmfs/soft.computecanada.ca/easybuild/software/2020/avx2/MPI/intel2020/openmpi4/openfoam/6/OpenFOAM-6/platforms/linux64IccDPInt32Opt/lib/libOpenFOAM.so(_ZN4Foam15functionObjects11timeControl7executeEv+0x40)[0x2b3f6b9f6e90]
==== backtrace (tid:  11868) ====
 0 0x0000000000020753 ucs_debug_print_backtrace()  /tmp/ebuser/avx2/UCX/1.8.0/GCCcore-9.3.0/ucx-1.8.0/src/ucs/debug/debug.c:653
 1 0x0000000000038980 killpg()  ???:0
 2 0x0000000000038901 __libc_signal_restore_set()  /cvmfs/soft.computecanada.ca/gentoo/2020/usr/src/debug/sys-libs/glibc-2.30-r8/glibc-2.30/signal/../sysdeps/unix/sysv/linux/internal-signals.h:84
 3 0x0000000000038980 killpg()  ???:0
 4 0x0000000000b7b279 Foam::sqrt()  scalarField.C:0
 5 0x000000000022c774 Foam::sqrt<Foam::fvPatchField, Foam::volMesh>()  ???:0
 6 0x0000000000346911 Foam::LESModels::LESeddyViscosity<Foam::IncompressibleTurbulenceModel<Foam::transportModel> >::epsilon()  ???:0
 7 0x000000000002673b Foam::postLESFuncFunctionObject::execute()  /scratch/hmarefat/torchFOAM/dynSmagCase/system/controlDict.functions.postLESFunc:97
 8 0x000000000002673b Foam::postLESFuncFunctionObject::execute()  /scratch/hmarefat/torchFOAM/dynSmagCase/system/controlDict.functions.postLESFunc:98
 9 0x00000000005c1e90 Foam::functionObjects::timeControl::execute()  ???:0
10 0x00000000005b0cee Foam::functionObjectList::execute()  ???:0
11 0x00000000005ca6d7 Foam::Time::run()  ???:0
12 0x000000000042c24a main()  ???:0
13 0x0000000000023e1b __libc_start_main()  /cvmfs/soft.computecanada.ca/gentoo/2020/usr/src/debug/sys-libs/glibc-2.30-r8/glibc-2.30/csu/../csu/libc-start.c:308
14 0x000000000042322a _start()  ???:0
=================================
[gra487:11868] *** Process received signal ***
[gra487:11868] Signal: Floating point exception (8)
[gra487:11868] Signal code:  (-6)
[gra487:11868] Failing at address: 0x2f5c0700002e5c
[gra487:11868] [ 0] /cvmfs/soft.computecanada.ca/gentoo/2020/lib64/libpthread.so.0(+0x130f0)[0x2b826f26a0f0]
[gra487:11868] [ 1] /cvmfs/soft.computecanada.ca/gentoo/2020/lib64/libc.so.6(gsignal+0x141)[0x2b8269bb9901]
[gra487:11868] [ 2] /cvmfs/soft.computecanada.ca/gentoo/2020/lib64/libc.so.6(+0x38980)[0x2b8269bb9980]
[gra487:11868] [ 3] /cvmfs/soft.computecanada.ca/easybuild/software/2020/avx2/MPI/intel2020/openmpi4/openfoam/6/OpenFOAM-6/platforms/linux64IccDPInt32Opt/lib/libOpenFOAM.so(+0xb7b279)[0x2b8268e40279]
[gra487:11868] [ 4] /cvmfs/soft.computecanada.ca/easybuild/software/2020/avx2/MPI/intel2020/openmpi4/openfoam/6/OpenFOAM-6/platforms/linux64IccDPInt32Opt/lib/libincompressibleTurbulenceModels.so(_ZN4Foam4sqrtINS_12fvPatchFieldENS_7volMeshEEENS_3tmpINS_14GeometricFieldIdT_T0_EEEERKS7_+0x544)[0x2b826040f774]
[gra487:11868] [ 5] /cvmfs/soft.computecanada.ca/easybuild/software/2020/avx2/MPI/intel2020/openmpi4/openfoam/6/OpenFOAM-6/platforms/linux64IccDPInt32Opt/lib/libincompressibleTurbulenceModels.so(_ZNK4Foam9LESModels16LESeddyViscosityINS_29IncompressibleTurbulenceModelINS_14transportModelEEEE7epsilonEv+0x1c1)[0x2b8260529911]
[gra487:11868] [ 6] /scratch/hmarefat/torchFOAM/dynSmagCase/dynamicCode/platforms/linux64GccDPInt32Opt/lib/libpostLESFunc_8655eda9046ae4ad6f097b1fcf01d4693c56ce52.so(_ZN4Foam25postLESFuncFunctionObject7executeEv+0x1fb)[0x2b827f9ec73b]
[gra487:11867] [ 8] /cvmfs/soft.computecanada.ca/easybuild/software/2020/avx2/MPI/intel2020/openmpi4/openfoam/6/OpenFOAM-6/platforms/linux64IccDPInt32Opt/lib/libOpenFOAM.so(_ZN4Foam18functionObjectList7executeEv+0x7e)[0x2b3f6b9e5cee]
[gra487:11868] [ 7] /cvmfs/soft.computecanada.ca/easybuild/software/2020/avx2/MPI/intel2020/openmpi4/openfoam/6/OpenFOAM-6/platforms/linux64IccDPInt32Opt/lib/libOpenFOAM.so(_ZN4Foam15functionObjects11timeControl7executeEv+0x40)[0x2b8268886e90]
[gra487:11868] [ 8] /cvmfs/soft.computecanada.ca/easybuild/software/2020/avx2/MPI/intel2020/openmpi4/openfoam/6/OpenFOAM-6/platforms/linux64IccDPInt32Opt/lib/libOpenFOAM.so(_ZN4Foam18functionObjectList7executeEv+0x7e)[0x2b8268875cee]
[gra487:11867] [ 9] /cvmfs/soft.computecanada.ca/easybuild/software/2020/avx2/MPI/intel2020/openmpi4/openfoam/6/OpenFOAM-6/platforms/linux64IccDPInt32Opt/lib/libOpenFOAM.so(_ZNK4Foam4Time3runEv+0x97)[0x2b3f6b9ff6d7]
[gra487:11868] [ 9] /cvmfs/soft.computecanada.ca/easybuild/software/2020/avx2/MPI/intel2020/openmpi4/openfoam/6/OpenFOAM-6/platforms/linux64IccDPInt32Opt/lib/libOpenFOAM.so(_ZNK4Foam4Time3runEv+0x97)[0x2b826888f6d7]
[gra487:11868] [10] /home/hmarefat/projects/def-alamj/shared/bin/v6/atmosphericLES[0x42c24a]
[gra487:11868] [11] /cvmfs/soft.computecanada.ca/gentoo/2020/lib64/libc.so.6(__libc_start_main+0xeb)[0x2b8269ba4e1b]
[gra487:11868] [12] /home/hmarefat/projects/def-alamj/shared/bin/v6/atmosphericLES[0x42322a]
[gra487:11868] *** End of error message ***
[gra487:11867] [10] /home/hmarefat/projects/def-alamj/shared/bin/v6/atmosphericLES[0x42c24a]
[gra487:11867] [11] /cvmfs/soft.computecanada.ca/gentoo/2020/lib64/libc.so.6(__libc_start_main+0xeb)[0x2b3f6cd14e1b]
[gra487:11867] [12] /home/hmarefat/projects/def-alamj/shared/bin/v6/atmosphericLES[0x42322a]
[gra487:11867] *** End of error message ***
==== backtrace (tid:   3067) ====
 0 0x0000000000020753 ucs_debug_print_backtrace()  /tmp/ebuser/avx2/UCX/1.8.0/GCCcore-9.3.0/ucx-1.8.0/src/ucs/debug/debug.c:653
 1 0x0000000000038980 killpg()  ???:0
 2 0x0000000000038901 __libc_signal_restore_set()  /cvmfs/soft.computecanada.ca/gentoo/2020/usr/src/debug/sys-libs/glibc-2.30-r8/glibc-2.30/signal/../sysdeps/unix/sysv/linux/internal-signals.h:84
 3 0x0000000000038980 killpg()  ???:0
 4 0x0000000000b7b27f Foam::sqrt()  scalarField.C:0
 5 0x000000000022c774 Foam::sqrt<Foam::fvPatchField, Foam::volMesh>()  ???:0
 6 0x0000000000346911 Foam::LESModels::LESeddyViscosity<Foam::IncompressibleTurbulenceModel<Foam::transportModel> >::epsilon()  ???:0
 7 0x000000000002673b Foam::postLESFuncFunctionObject::execute()  /scratch/hmarefat/torchFOAM/dynSmagCase/system/controlDict.functions.postLESFunc:97
 8 0x000000000002673b Foam::postLESFuncFunctionObject::execute()  /scratch/hmarefat/torchFOAM/dynSmagCase/system/controlDict.functions.postLESFunc:98
 9 0x00000000005c1e90 Foam::functionObjects::timeControl::execute()  ???:0
10 0x00000000005b0cee Foam::functionObjectList::execute()  ???:0
11 0x00000000005ca6d7 Foam::Time::run()  ???:0
12 0x000000000042c24a main()  ???:0
13 0x0000000000023e1b __libc_start_main()  /cvmfs/soft.computecanada.ca/gentoo/2020/usr/src/debug/sys-libs/glibc-2.30-r8/glibc-2.30/csu/../csu/libc-start.c:308
14 0x000000000042322a _start()  ???:0
=================================
[gra499:03067] *** Process received signal ***
[gra499:03067] Signal: Floating point exception (8)
[gra499:03067] Signal code:  (-6)
[gra499:03067] Failing at address: 0x2f5c0700000bfb
[gra499:03067] [ 0] /cvmfs/soft.computecanada.ca/gentoo/2020/lib64/libpthread.so.0(+0x130f0)[0x2af723c2c0f0]
[gra499:03067] [ 1] /cvmfs/soft.computecanada.ca/gentoo/2020/lib64/libc.so.6(gsignal+0x141)[0x2af71e57b901]
[gra499:03067] [ 2] /cvmfs/soft.computecanada.ca/gentoo/2020/lib64/libc.so.6(+0x38980)[0x2af71e57b980]
[gra499:03067] [ 3] /cvmfs/soft.computecanada.ca/easybuild/software/2020/avx2/MPI/intel2020/openmpi4/openfoam/6/OpenFOAM-6/platforms/linux64IccDPInt32Opt/lib/libOpenFOAM.so(+0xb7b27f)[0x2af71d80227f]
[gra499:03067] [ 4] /cvmfs/soft.computecanada.ca/easybuild/software/2020/avx2/MPI/intel2020/openmpi4/openfoam/6/OpenFOAM-6/platforms/linux64IccDPInt32Opt/lib/libincompressibleTurbulenceModels.so(_ZN4Foam4sqrtINS_12fvPatchFieldENS_7volMeshEEENS_3tmpINS_14GeometricFieldIdT_T0_EEEERKS7_+0x544)[0x2af714dd1774]
[gra499:03067] [ 5] /cvmfs/soft.computecanada.ca/easybuild/software/2020/avx2/MPI/intel2020/openmpi4/openfoam/6/OpenFOAM-6/platforms/linux64IccDPInt32Opt/lib/libincompressibleTurbulenceModels.so(_ZNK4Foam9LESModels16LESeddyViscosityINS_29IncompressibleTurbulenceModelINS_14transportModelEEEE7epsilonEv+0x1c1)[0x2af714eeb911]
[gra499:03067] [ 6] /scratch/hmarefat/torchFOAM/dynSmagCase/dynamicCode/platforms/linux64GccDPInt32Opt/lib/libpostLESFunc_8655eda9046ae4ad6f097b1fcf01d4693c56ce52.so(_ZN4Foam25postLESFuncFunctionObject7executeEv+0x1fb)[0x2af7342a773b]
[gra499:03067] [ 7] /cvmfs/soft.computecanada.ca/easybuild/software/2020/avx2/MPI/intel2020/openmpi4/openfoam/6/OpenFOAM-6/platforms/linux64IccDPInt32Opt/lib/libOpenFOAM.so(_ZN4Foam15functionObjects11timeControl7executeEv+0x40)[0x2af71d248e90]
[gra499:03067] [ 8] /cvmfs/soft.computecanada.ca/easybuild/software/2020/avx2/MPI/intel2020/openmpi4/openfoam/6/OpenFOAM-6/platforms/linux64IccDPInt32Opt/lib/libOpenFOAM.so(_ZN4Foam18functionObjectList7executeEv+0x7e)[0x2af71d237cee]
[gra499:03067] [ 9] /cvmfs/soft.computecanada.ca/easybuild/software/2020/avx2/MPI/intel2020/openmpi4/openfoam/6/OpenFOAM-6/platforms/linux64IccDPInt32Opt/lib/libOpenFOAM.so(_ZNK4Foam4Time3runEv+0x97)[0x2af71d2516d7]
[gra499:03067] [10] /home/hmarefat/projects/def-alamj/shared/bin/v6/atmosphericLES[0x42c24a]
[gra499:03067] [11] /cvmfs/soft.computecanada.ca/gentoo/2020/lib64/libc.so.6(__libc_start_main+0xeb)[0x2af71e566e1b]
[gra499:03067] [12] /home/hmarefat/projects/def-alamj/shared/bin/v6/atmosphericLES[0x42322a]
[gra499:03067] *** End of error message ***
==== backtrace (tid:   6353) ====
 0 0x0000000000020753 ucs_debug_print_backtrace()  /tmp/ebuser/avx2/UCX/1.8.0/GCCcore-9.3.0/ucx-1.8.0/src/ucs/debug/debug.c:653
 1 0x0000000000038980 killpg()  ???:0
 2 0x0000000000038901 __libc_signal_restore_set()  /cvmfs/soft.computecanada.ca/gentoo/2020/usr/src/debug/sys-libs/glibc-2.30-r8/glibc-2.30/signal/../sysdeps/unix/sysv/linux/internal-signals.h:84
 3 0x0000000000038980 killpg()  ???:0
 4 0x0000000000b7b279 Foam::sqrt()  scalarField.C:0
 5 0x000000000022c774 Foam::sqrt<Foam::fvPatchField, Foam::volMesh>()  ???:0
 6 0x0000000000346911 Foam::LESModels::LESeddyViscosity<Foam::IncompressibleTurbulenceModel<Foam::transportModel> >::epsilon()  ???:0
 7 0x000000000002673b Foam::postLESFuncFunctionObject::execute()  /scratch/hmarefat/torchFOAM/dynSmagCase/system/controlDict.functions.postLESFunc:97
 8 0x000000000002673b Foam::postLESFuncFunctionObject::execute()  /scratch/hmarefat/torchFOAM/dynSmagCase/system/controlDict.functions.postLESFunc:98
 9 0x00000000005c1e90 Foam::functionObjects::timeControl::execute()  ???:0
10 0x00000000005b0cee Foam::functionObjectList::execute()  ???:0
11 0x00000000005ca6d7 Foam::Time::run()  ???:0
12 0x000000000042c24a main()  ???:0
13 0x0000000000023e1b __libc_start_main()  /cvmfs/soft.computecanada.ca/gentoo/2020/usr/src/debug/sys-libs/glibc-2.30-r8/glibc-2.30/csu/../csu/libc-start.c:308
14 0x000000000042322a _start()  ???:0
=================================
[gra495:06353] *** Process received signal ***
[gra495:06353] Signal: Floating point exception (8)
[gra495:06353] Signal code:  (-6)
[gra495:06353] Failing at address: 0x2f5c07000018d1
[gra495:06353] [ 0] /cvmfs/soft.computecanada.ca/gentoo/2020/lib64/libpthread.so.0(+0x130f0)[0x2b5b4fd100f0]
[gra495:06353] [ 1] /cvmfs/soft.computecanada.ca/gentoo/2020/lib64/libc.so.6(gsignal+0x141)[0x2b5b4a65f901]
[gra495:06353] [ 2] /cvmfs/soft.computecanada.ca/gentoo/2020/lib64/libc.so.6(+0x38980)[0x2b5b4a65f980]
[gra495:06353] [ 3] /cvmfs/soft.computecanada.ca/easybuild/software/2020/avx2/MPI/intel2020/openmpi4/openfoam/6/OpenFOAM-6/platforms/linux64IccDPInt32Opt/lib/libOpenFOAM.so(+0xb7b279)[0x2b5b498e6279]
[gra495:06353] [ 4] /cvmfs/soft.computecanada.ca/easybuild/software/2020/avx2/MPI/intel2020/openmpi4/openfoam/6/OpenFOAM-6/platforms/linux64IccDPInt32Opt/lib/libincompressibleTurbulenceModels.so(_ZN4Foam4sqrtINS_12fvPatchFieldENS_7volMeshEEENS_3tmpINS_14GeometricFieldIdT_T0_EEEERKS7_+0x544)[0x2b5b40eb5774]
[gra495:06353] [ 5] /cvmfs/soft.computecanada.ca/easybuild/software/2020/avx2/MPI/intel2020/openmpi4/openfoam/6/OpenFOAM-6/platforms/linux64IccDPInt32Opt/lib/libincompressibleTurbulenceModels.so(_ZNK4Foam9LESModels16LESeddyViscosityINS_29IncompressibleTurbulenceModelINS_14transportModelEEEE7epsilonEv+0x1c1)[0x2b5b40fcf911]
[gra495:06353] [ 6] /scratch/hmarefat/torchFOAM/dynSmagCase/dynamicCode/platforms/linux64GccDPInt32Opt/lib/libpostLESFunc_8655eda9046ae4ad6f097b1fcf01d4693c56ce52.so(_ZN4Foam25postLESFuncFunctionObject7executeEv+0x1fb)[0x2b5b6049373b]
[gra495:06353] [ 7] /cvmfs/soft.computecanada.ca/easybuild/software/2020/avx2/MPI/intel2020/openmpi4/openfoam/6/OpenFOAM-6/platforms/linux64IccDPInt32Opt/lib/libOpenFOAM.so(_ZN4Foam15functionObjects11timeControl7executeEv+0x40)[0x2b5b4932ce90]
[gra495:06353] [ 8] /cvmfs/soft.computecanada.ca/easybuild/software/2020/avx2/MPI/intel2020/openmpi4/openfoam/6/OpenFOAM-6/platforms/linux64IccDPInt32Opt/lib/libOpenFOAM.so(_ZN4Foam18functionObjectList7executeEv+0x7e)[0x2b5b4931bcee]
[gra495:06353] [ 9] /cvmfs/soft.computecanada.ca/easybuild/software/2020/avx2/MPI/intel2020/openmpi4/openfoam/6/OpenFOAM-6/platforms/linux64IccDPInt32Opt/lib/libOpenFOAM.so(_ZNK4Foam4Time3runEv+0x97)[0x2b5b493356d7]
[gra495:06353] [10] /home/hmarefat/projects/def-alamj/shared/bin/v6/atmosphericLES[0x42c24a]
[gra495:06353] [11] /cvmfs/soft.computecanada.ca/gentoo/2020/lib64/libc.so.6(__libc_start_main+0xeb)[0x2b5b4a64ae1b]
[gra495:06353] [12] /home/hmarefat/projects/def-alamj/shared/bin/v6/atmosphericLES[0x42322a]
[gra495:06353] *** End of error message ***
srun: error: gra498: tasks 149-150: Floating point exception (core dumped)
srun: launch/slurm: _step_signal: Terminating StepId=5597393.0
srun: error: gra499: tasks 165-166: Floating point exception (core dumped)
srun: error: gra487: tasks 85-86: Floating point exception (core dumped)
srun: error: gra495: tasks 101-102: Floating point exception (core dumped)
slurmstepd: error: *** STEP 5597393.0 ON gra411 CANCELLED AT 2023-04-19T13:52:03 ***
srun: error: gra411: tasks 0-31: Terminated
srun: error: gra485: tasks 32-63: Terminated
srun: error: gra495: tasks 96-100,103-127: Terminated
srun: error: gra569: tasks 224-255: Terminated
srun: error: gra487: tasks 64-84,87-95: Terminated
srun: error: gra498: tasks 128-148,151-159: Terminated
srun: error: gra557: tasks 192-223: Terminated
srun: error: gra499: tasks 160-164,167-191: Terminated
srun: Force Terminated StepId=5597393.0
/*---------------------------------------------------------------------------*\
  =========                 |
  \\      /  F ield         | OpenFOAM: The Open Source CFD Toolbox
   \\    /   O peration     | Website:  https://openfoam.org
    \\  /    A nd           | Version:  6
     \\/     M anipulation  |
\*---------------------------------------------------------------------------*/
Build  : 6
Exec   : reconstructPar
Date   : Apr 19 2023
Time   : 13:52:05
Host   : "gra411"
PID    : 26220
I/O    : uncollated
Case   : /scratch/hmarefat/torchFOAM/dynSmagCase
nProcs : 1
sigFpe : Enabling floating point exception trapping (FOAM_SIGFPE).
fileModificationChecking : Monitoring run-time modified files using timeStampMaster (fileModificationSkew 10)
allowSystemOperations : Allowing user-supplied system call operations

// * * * * * * * * * * * * * * * * * * * * * * * * * * * * * * * * * * * * * //
Create time

--> FOAM Warning : 
    From function int main(int, char**)
    in file reconstructPar.C at line 220
    No times selected
